
---------- Begin Simulation Statistics ----------
simSeconds                                   0.178682                       # Number of seconds simulated (Second)
simTicks                                 178681870935                       # Number of ticks simulated (Tick)
finalTick                                178681870935                       # Number of ticks from beginning of simulation (restored from checkpoints and never reset) (Tick)
simFreq                                  1000000000000                       # The number of ticks per simulated second ((Tick/Second))
hostSeconds                                   2017.58                       # Real time elapsed on the host (Second)
hostTickRate                                 88562351                       # The number of ticks simulated per host second (ticks/s) ((Tick/Second))
hostMemory                                    2090312                       # Number of bytes of host memory used (Byte)
simInsts                                    162314119                       # Number of instructions simulated (Count)
simOps                                      264178199                       # Number of ops (including micro ops) simulated (Count)
hostInstRate                                    80450                       # Simulator instruction rate (inst/s) ((Count/Second))
hostOpRate                                     130938                       # Simulator op (including micro ops) rate (op/s) ((Count/Second))
board.cache_hierarchy.dptw_caches.blockedCycles::no_mshrs            0                       # number of cycles access was blocked (Cycle)
board.cache_hierarchy.dptw_caches.blockedCycles::no_targets            0                       # number of cycles access was blocked (Cycle)
board.cache_hierarchy.dptw_caches.blockedCauses::no_mshrs            0                       # number of times access was blocked (Count)
board.cache_hierarchy.dptw_caches.blockedCauses::no_targets            0                       # number of times access was blocked (Count)
board.cache_hierarchy.dptw_caches.avgBlocked::no_mshrs          nan                       # average number of cycles each access was blocked ((Cycle/Count))
board.cache_hierarchy.dptw_caches.avgBlocked::no_targets          nan                       # average number of cycles each access was blocked ((Cycle/Count))
board.cache_hierarchy.dptw_caches.replacements            0                       # number of replacements (Count)
board.cache_hierarchy.dptw_caches.power_state.pwrStateResidencyTicks::UNDEFINED 178681870935                       # Cumulative time (in ticks) in various power states (Tick)
board.cache_hierarchy.dptw_caches.tags.tagsInUse            0                       # Average ticks per tags in use ((Tick/Count))
board.cache_hierarchy.dptw_caches.tags.totalRefs            0                       # Total number of references to valid blocks. (Count)
board.cache_hierarchy.dptw_caches.tags.sampledRefs            0                       # Sample count of references to valid blocks. (Count)
board.cache_hierarchy.dptw_caches.tags.avgRefs          nan                       # Average number of references to valid blocks. ((Count/Count))
board.cache_hierarchy.dptw_caches.tags.warmupTick            0                       # The tick when the warmup percentage was hit. (Tick)
board.cache_hierarchy.dptw_caches.tags.tagAccesses            0                       # Number of tag accesses (Count)
board.cache_hierarchy.dptw_caches.tags.dataAccesses            0                       # Number of data accesses (Count)
board.cache_hierarchy.dptw_caches.tags.power_state.pwrStateResidencyTicks::UNDEFINED 178681870935                       # Cumulative time (in ticks) in various power states (Tick)
board.cache_hierarchy.iptw_caches.blockedCycles::no_mshrs            0                       # number of cycles access was blocked (Cycle)
board.cache_hierarchy.iptw_caches.blockedCycles::no_targets            0                       # number of cycles access was blocked (Cycle)
board.cache_hierarchy.iptw_caches.blockedCauses::no_mshrs            0                       # number of times access was blocked (Count)
board.cache_hierarchy.iptw_caches.blockedCauses::no_targets            0                       # number of times access was blocked (Count)
board.cache_hierarchy.iptw_caches.avgBlocked::no_mshrs          nan                       # average number of cycles each access was blocked ((Cycle/Count))
board.cache_hierarchy.iptw_caches.avgBlocked::no_targets          nan                       # average number of cycles each access was blocked ((Cycle/Count))
board.cache_hierarchy.iptw_caches.replacements            0                       # number of replacements (Count)
board.cache_hierarchy.iptw_caches.power_state.pwrStateResidencyTicks::UNDEFINED 178681870935                       # Cumulative time (in ticks) in various power states (Tick)
board.cache_hierarchy.iptw_caches.tags.tagsInUse            0                       # Average ticks per tags in use ((Tick/Count))
board.cache_hierarchy.iptw_caches.tags.totalRefs            0                       # Total number of references to valid blocks. (Count)
board.cache_hierarchy.iptw_caches.tags.sampledRefs            0                       # Sample count of references to valid blocks. (Count)
board.cache_hierarchy.iptw_caches.tags.avgRefs          nan                       # Average number of references to valid blocks. ((Count/Count))
board.cache_hierarchy.iptw_caches.tags.warmupTick            0                       # The tick when the warmup percentage was hit. (Tick)
board.cache_hierarchy.iptw_caches.tags.tagAccesses            0                       # Number of tag accesses (Count)
board.cache_hierarchy.iptw_caches.tags.dataAccesses            0                       # Number of data accesses (Count)
board.cache_hierarchy.iptw_caches.tags.power_state.pwrStateResidencyTicks::UNDEFINED 178681870935                       # Cumulative time (in ticks) in various power states (Tick)
board.cache_hierarchy.l1dcaches.demandHits::processor.cores.core.data     67559722                       # number of demand (read+write) hits (Count)
board.cache_hierarchy.l1dcaches.demandHits::total     67559722                       # number of demand (read+write) hits (Count)
board.cache_hierarchy.l1dcaches.overallHits::processor.cores.core.data     67559722                       # number of overall hits (Count)
board.cache_hierarchy.l1dcaches.overallHits::total     67559722                       # number of overall hits (Count)
board.cache_hierarchy.l1dcaches.demandMisses::processor.cores.core.data       764339                       # number of demand (read+write) misses (Count)
board.cache_hierarchy.l1dcaches.demandMisses::total       764339                       # number of demand (read+write) misses (Count)
board.cache_hierarchy.l1dcaches.overallMisses::processor.cores.core.data       764339                       # number of overall misses (Count)
board.cache_hierarchy.l1dcaches.overallMisses::total       764339                       # number of overall misses (Count)
board.cache_hierarchy.l1dcaches.demandMissLatency::processor.cores.core.data  39174950502                       # number of demand (read+write) miss ticks (Tick)
board.cache_hierarchy.l1dcaches.demandMissLatency::total  39174950502                       # number of demand (read+write) miss ticks (Tick)
board.cache_hierarchy.l1dcaches.overallMissLatency::processor.cores.core.data  39174950502                       # number of overall miss ticks (Tick)
board.cache_hierarchy.l1dcaches.overallMissLatency::total  39174950502                       # number of overall miss ticks (Tick)
board.cache_hierarchy.l1dcaches.demandAccesses::processor.cores.core.data     68324061                       # number of demand (read+write) accesses (Count)
board.cache_hierarchy.l1dcaches.demandAccesses::total     68324061                       # number of demand (read+write) accesses (Count)
board.cache_hierarchy.l1dcaches.overallAccesses::processor.cores.core.data     68324061                       # number of overall (read+write) accesses (Count)
board.cache_hierarchy.l1dcaches.overallAccesses::total     68324061                       # number of overall (read+write) accesses (Count)
board.cache_hierarchy.l1dcaches.demandMissRate::processor.cores.core.data     0.011187                       # miss rate for demand accesses (Ratio)
board.cache_hierarchy.l1dcaches.demandMissRate::total     0.011187                       # miss rate for demand accesses (Ratio)
board.cache_hierarchy.l1dcaches.overallMissRate::processor.cores.core.data     0.011187                       # miss rate for overall accesses (Ratio)
board.cache_hierarchy.l1dcaches.overallMissRate::total     0.011187                       # miss rate for overall accesses (Ratio)
board.cache_hierarchy.l1dcaches.demandAvgMissLatency::processor.cores.core.data 51253.371216                       # average overall miss latency in ticks ((Tick/Count))
board.cache_hierarchy.l1dcaches.demandAvgMissLatency::total 51253.371216                       # average overall miss latency in ticks ((Tick/Count))
board.cache_hierarchy.l1dcaches.overallAvgMissLatency::processor.cores.core.data 51253.371216                       # average overall miss latency ((Tick/Count))
board.cache_hierarchy.l1dcaches.overallAvgMissLatency::total 51253.371216                       # average overall miss latency ((Tick/Count))
board.cache_hierarchy.l1dcaches.blockedCycles::no_mshrs            0                       # number of cycles access was blocked (Cycle)
board.cache_hierarchy.l1dcaches.blockedCycles::no_targets            0                       # number of cycles access was blocked (Cycle)
board.cache_hierarchy.l1dcaches.blockedCauses::no_mshrs            0                       # number of times access was blocked (Count)
board.cache_hierarchy.l1dcaches.blockedCauses::no_targets            0                       # number of times access was blocked (Count)
board.cache_hierarchy.l1dcaches.avgBlocked::no_mshrs          nan                       # average number of cycles each access was blocked ((Cycle/Count))
board.cache_hierarchy.l1dcaches.avgBlocked::no_targets          nan                       # average number of cycles each access was blocked ((Cycle/Count))
board.cache_hierarchy.l1dcaches.writebacks::writebacks         8534                       # number of writebacks (Count)
board.cache_hierarchy.l1dcaches.writebacks::total         8534                       # number of writebacks (Count)
board.cache_hierarchy.l1dcaches.demandMshrHits::processor.cores.core.data        10793                       # number of demand (read+write) MSHR hits (Count)
board.cache_hierarchy.l1dcaches.demandMshrHits::total        10793                       # number of demand (read+write) MSHR hits (Count)
board.cache_hierarchy.l1dcaches.overallMshrHits::processor.cores.core.data        10793                       # number of overall MSHR hits (Count)
board.cache_hierarchy.l1dcaches.overallMshrHits::total        10793                       # number of overall MSHR hits (Count)
board.cache_hierarchy.l1dcaches.demandMshrMisses::processor.cores.core.data       753546                       # number of demand (read+write) MSHR misses (Count)
board.cache_hierarchy.l1dcaches.demandMshrMisses::total       753546                       # number of demand (read+write) MSHR misses (Count)
board.cache_hierarchy.l1dcaches.overallMshrMisses::cache_hierarchy.l1dcaches.prefetcher         6756                       # number of overall MSHR misses (Count)
board.cache_hierarchy.l1dcaches.overallMshrMisses::processor.cores.core.data       753546                       # number of overall MSHR misses (Count)
board.cache_hierarchy.l1dcaches.overallMshrMisses::total       760302                       # number of overall MSHR misses (Count)
board.cache_hierarchy.l1dcaches.demandMshrMissLatency::processor.cores.core.data  38667852774                       # number of demand (read+write) MSHR miss ticks (Tick)
board.cache_hierarchy.l1dcaches.demandMshrMissLatency::total  38667852774                       # number of demand (read+write) MSHR miss ticks (Tick)
board.cache_hierarchy.l1dcaches.overallMshrMissLatency::cache_hierarchy.l1dcaches.prefetcher    435335356                       # number of overall MSHR miss ticks (Tick)
board.cache_hierarchy.l1dcaches.overallMshrMissLatency::processor.cores.core.data  38667852774                       # number of overall MSHR miss ticks (Tick)
board.cache_hierarchy.l1dcaches.overallMshrMissLatency::total  39103188130                       # number of overall MSHR miss ticks (Tick)
board.cache_hierarchy.l1dcaches.demandMshrMissRate::processor.cores.core.data     0.011029                       # mshr miss ratio for demand accesses (Ratio)
board.cache_hierarchy.l1dcaches.demandMshrMissRate::total     0.011029                       # mshr miss ratio for demand accesses (Ratio)
board.cache_hierarchy.l1dcaches.overallMshrMissRate::cache_hierarchy.l1dcaches.prefetcher          inf                       # mshr miss ratio for overall accesses (Ratio)
board.cache_hierarchy.l1dcaches.overallMshrMissRate::processor.cores.core.data     0.011029                       # mshr miss ratio for overall accesses (Ratio)
board.cache_hierarchy.l1dcaches.overallMshrMissRate::total     0.011128                       # mshr miss ratio for overall accesses (Ratio)
board.cache_hierarchy.l1dcaches.demandAvgMshrMissLatency::processor.cores.core.data 51314.521972                       # average overall mshr miss latency ((Tick/Count))
board.cache_hierarchy.l1dcaches.demandAvgMshrMissLatency::total 51314.521972                       # average overall mshr miss latency ((Tick/Count))
board.cache_hierarchy.l1dcaches.overallAvgMshrMissLatency::cache_hierarchy.l1dcaches.prefetcher 64436.849615                       # average overall mshr miss latency ((Tick/Count))
board.cache_hierarchy.l1dcaches.overallAvgMshrMissLatency::processor.cores.core.data 51314.521972                       # average overall mshr miss latency ((Tick/Count))
board.cache_hierarchy.l1dcaches.overallAvgMshrMissLatency::total 51431.126224                       # average overall mshr miss latency ((Tick/Count))
board.cache_hierarchy.l1dcaches.replacements       520686                       # number of replacements (Count)
board.cache_hierarchy.l1dcaches.CleanInvalidReq.missLatency::processor.cores.core.data   1831289877                       # number of CleanInvalidReq miss ticks (Tick)
board.cache_hierarchy.l1dcaches.CleanInvalidReq.missLatency::total   1831289877                       # number of CleanInvalidReq miss ticks (Tick)
board.cache_hierarchy.l1dcaches.CleanInvalidReq.avgMissLatency::processor.cores.core.data          inf                       # average CleanInvalidReq miss latency ((Tick/Count))
board.cache_hierarchy.l1dcaches.CleanInvalidReq.avgMissLatency::total          inf                       # average CleanInvalidReq miss latency ((Tick/Count))
board.cache_hierarchy.l1dcaches.CleanInvalidReq.mshrMisses::processor.cores.core.data      5402800                       # number of CleanInvalidReq MSHR misses (Count)
board.cache_hierarchy.l1dcaches.CleanInvalidReq.mshrMisses::total      5402800                       # number of CleanInvalidReq MSHR misses (Count)
board.cache_hierarchy.l1dcaches.CleanInvalidReq.mshrMissLatency::processor.cores.core.data  39580912800                       # number of CleanInvalidReq MSHR miss ticks (Tick)
board.cache_hierarchy.l1dcaches.CleanInvalidReq.mshrMissLatency::total  39580912800                       # number of CleanInvalidReq MSHR miss ticks (Tick)
board.cache_hierarchy.l1dcaches.CleanInvalidReq.mshrMissRate::processor.cores.core.data          inf                       # mshr miss rate for CleanInvalidReq accesses (Ratio)
board.cache_hierarchy.l1dcaches.CleanInvalidReq.mshrMissRate::total          inf                       # mshr miss rate for CleanInvalidReq accesses (Ratio)
board.cache_hierarchy.l1dcaches.CleanInvalidReq.avgMshrMissLatency::processor.cores.core.data         7326                       # average CleanInvalidReq mshr miss latency ((Tick/Count))
board.cache_hierarchy.l1dcaches.CleanInvalidReq.avgMshrMissLatency::total         7326                       # average CleanInvalidReq mshr miss latency ((Tick/Count))
board.cache_hierarchy.l1dcaches.HardPFReq.mshrMisses::cache_hierarchy.l1dcaches.prefetcher         6756                       # number of HardPFReq MSHR misses (Count)
board.cache_hierarchy.l1dcaches.HardPFReq.mshrMisses::total         6756                       # number of HardPFReq MSHR misses (Count)
board.cache_hierarchy.l1dcaches.HardPFReq.mshrMissLatency::cache_hierarchy.l1dcaches.prefetcher    435335356                       # number of HardPFReq MSHR miss ticks (Tick)
board.cache_hierarchy.l1dcaches.HardPFReq.mshrMissLatency::total    435335356                       # number of HardPFReq MSHR miss ticks (Tick)
board.cache_hierarchy.l1dcaches.HardPFReq.mshrMissRate::cache_hierarchy.l1dcaches.prefetcher          inf                       # mshr miss rate for HardPFReq accesses (Ratio)
board.cache_hierarchy.l1dcaches.HardPFReq.mshrMissRate::total          inf                       # mshr miss rate for HardPFReq accesses (Ratio)
board.cache_hierarchy.l1dcaches.HardPFReq.avgMshrMissLatency::cache_hierarchy.l1dcaches.prefetcher 64436.849615                       # average HardPFReq mshr miss latency ((Tick/Count))
board.cache_hierarchy.l1dcaches.HardPFReq.avgMshrMissLatency::total 64436.849615                       # average HardPFReq mshr miss latency ((Tick/Count))
board.cache_hierarchy.l1dcaches.ReadReq.hits::processor.cores.core.data     41885037                       # number of ReadReq hits (Count)
board.cache_hierarchy.l1dcaches.ReadReq.hits::total     41885037                       # number of ReadReq hits (Count)
board.cache_hierarchy.l1dcaches.ReadReq.misses::processor.cores.core.data       762869                       # number of ReadReq misses (Count)
board.cache_hierarchy.l1dcaches.ReadReq.misses::total       762869                       # number of ReadReq misses (Count)
board.cache_hierarchy.l1dcaches.ReadReq.missLatency::processor.cores.core.data  39118044465                       # number of ReadReq miss ticks (Tick)
board.cache_hierarchy.l1dcaches.ReadReq.missLatency::total  39118044465                       # number of ReadReq miss ticks (Tick)
board.cache_hierarchy.l1dcaches.ReadReq.accesses::processor.cores.core.data     42647906                       # number of ReadReq accesses(hits+misses) (Count)
board.cache_hierarchy.l1dcaches.ReadReq.accesses::total     42647906                       # number of ReadReq accesses(hits+misses) (Count)
board.cache_hierarchy.l1dcaches.ReadReq.missRate::processor.cores.core.data     0.017888                       # miss rate for ReadReq accesses (Ratio)
board.cache_hierarchy.l1dcaches.ReadReq.missRate::total     0.017888                       # miss rate for ReadReq accesses (Ratio)
board.cache_hierarchy.l1dcaches.ReadReq.avgMissLatency::processor.cores.core.data 51277.538431                       # average ReadReq miss latency ((Tick/Count))
board.cache_hierarchy.l1dcaches.ReadReq.avgMissLatency::total 51277.538431                       # average ReadReq miss latency ((Tick/Count))
board.cache_hierarchy.l1dcaches.ReadReq.mshrHits::processor.cores.core.data        10743                       # number of ReadReq MSHR hits (Count)
board.cache_hierarchy.l1dcaches.ReadReq.mshrHits::total        10743                       # number of ReadReq MSHR hits (Count)
board.cache_hierarchy.l1dcaches.ReadReq.mshrMisses::processor.cores.core.data       752126                       # number of ReadReq MSHR misses (Count)
board.cache_hierarchy.l1dcaches.ReadReq.mshrMisses::total       752126                       # number of ReadReq MSHR misses (Count)
board.cache_hierarchy.l1dcaches.ReadReq.mshrMissLatency::processor.cores.core.data  38612620395                       # number of ReadReq MSHR miss ticks (Tick)
board.cache_hierarchy.l1dcaches.ReadReq.mshrMissLatency::total  38612620395                       # number of ReadReq MSHR miss ticks (Tick)
board.cache_hierarchy.l1dcaches.ReadReq.mshrMissRate::processor.cores.core.data     0.017636                       # mshr miss rate for ReadReq accesses (Ratio)
board.cache_hierarchy.l1dcaches.ReadReq.mshrMissRate::total     0.017636                       # mshr miss rate for ReadReq accesses (Ratio)
board.cache_hierarchy.l1dcaches.ReadReq.avgMshrMissLatency::processor.cores.core.data 51337.967834                       # average ReadReq mshr miss latency ((Tick/Count))
board.cache_hierarchy.l1dcaches.ReadReq.avgMshrMissLatency::total 51337.967834                       # average ReadReq mshr miss latency ((Tick/Count))
board.cache_hierarchy.l1dcaches.WriteReq.hits::processor.cores.core.data     25674685                       # number of WriteReq hits (Count)
board.cache_hierarchy.l1dcaches.WriteReq.hits::total     25674685                       # number of WriteReq hits (Count)
board.cache_hierarchy.l1dcaches.WriteReq.misses::processor.cores.core.data         1470                       # number of WriteReq misses (Count)
board.cache_hierarchy.l1dcaches.WriteReq.misses::total         1470                       # number of WriteReq misses (Count)
board.cache_hierarchy.l1dcaches.WriteReq.missLatency::processor.cores.core.data     56906037                       # number of WriteReq miss ticks (Tick)
board.cache_hierarchy.l1dcaches.WriteReq.missLatency::total     56906037                       # number of WriteReq miss ticks (Tick)
board.cache_hierarchy.l1dcaches.WriteReq.accesses::processor.cores.core.data     25676155                       # number of WriteReq accesses(hits+misses) (Count)
board.cache_hierarchy.l1dcaches.WriteReq.accesses::total     25676155                       # number of WriteReq accesses(hits+misses) (Count)
board.cache_hierarchy.l1dcaches.WriteReq.missRate::processor.cores.core.data     0.000057                       # miss rate for WriteReq accesses (Ratio)
board.cache_hierarchy.l1dcaches.WriteReq.missRate::total     0.000057                       # miss rate for WriteReq accesses (Ratio)
board.cache_hierarchy.l1dcaches.WriteReq.avgMissLatency::processor.cores.core.data 38711.589796                       # average WriteReq miss latency ((Tick/Count))
board.cache_hierarchy.l1dcaches.WriteReq.avgMissLatency::total 38711.589796                       # average WriteReq miss latency ((Tick/Count))
board.cache_hierarchy.l1dcaches.WriteReq.mshrHits::processor.cores.core.data           50                       # number of WriteReq MSHR hits (Count)
board.cache_hierarchy.l1dcaches.WriteReq.mshrHits::total           50                       # number of WriteReq MSHR hits (Count)
board.cache_hierarchy.l1dcaches.WriteReq.mshrMisses::processor.cores.core.data         1420                       # number of WriteReq MSHR misses (Count)
board.cache_hierarchy.l1dcaches.WriteReq.mshrMisses::total         1420                       # number of WriteReq MSHR misses (Count)
board.cache_hierarchy.l1dcaches.WriteReq.mshrMissLatency::processor.cores.core.data     55232379                       # number of WriteReq MSHR miss ticks (Tick)
board.cache_hierarchy.l1dcaches.WriteReq.mshrMissLatency::total     55232379                       # number of WriteReq MSHR miss ticks (Tick)
board.cache_hierarchy.l1dcaches.WriteReq.mshrMissRate::processor.cores.core.data     0.000055                       # mshr miss rate for WriteReq accesses (Ratio)
board.cache_hierarchy.l1dcaches.WriteReq.mshrMissRate::total     0.000055                       # mshr miss rate for WriteReq accesses (Ratio)
board.cache_hierarchy.l1dcaches.WriteReq.avgMshrMissLatency::processor.cores.core.data 38896.041549                       # average WriteReq mshr miss latency ((Tick/Count))
board.cache_hierarchy.l1dcaches.WriteReq.avgMshrMissLatency::total 38896.041549                       # average WriteReq mshr miss latency ((Tick/Count))
board.cache_hierarchy.l1dcaches.power_state.pwrStateResidencyTicks::UNDEFINED 178681870935                       # Cumulative time (in ticks) in various power states (Tick)
board.cache_hierarchy.l1dcaches.prefetcher.demandMshrMisses       753546                       # demands not covered by prefetchs (Count)
board.cache_hierarchy.l1dcaches.prefetcher.pfIssued        13654                       # number of hwpf issued (Count)
board.cache_hierarchy.l1dcaches.prefetcher.pfUnused         3455                       # number of HardPF blocks evicted w/o reference (Count)
board.cache_hierarchy.l1dcaches.prefetcher.pfUseful         2906                       # number of useful prefetch (Count)
board.cache_hierarchy.l1dcaches.prefetcher.pfUsefulButMiss            0                       # number of hit on prefetch but cache block is not in an usable state (Count)
board.cache_hierarchy.l1dcaches.prefetcher.accuracy     0.212831                       # accuracy of the prefetcher (Count)
board.cache_hierarchy.l1dcaches.prefetcher.coverage     0.003842                       # coverage brought by this prefetcher (Count)
board.cache_hierarchy.l1dcaches.prefetcher.pfHitInCache         2618                       # number of prefetches hitting in cache (Count)
board.cache_hierarchy.l1dcaches.prefetcher.pfHitInMSHR         4280                       # number of prefetches hitting in a MSHR (Count)
board.cache_hierarchy.l1dcaches.prefetcher.pfHitInWB            0                       # number of prefetches hit in the Write Buffer (Count)
board.cache_hierarchy.l1dcaches.prefetcher.pfLate         6898                       # number of late prefetches (hitting in cache, MSHR or WB) (Count)
board.cache_hierarchy.l1dcaches.prefetcher.pfIdentified        19268                       # number of prefetch candidates identified (Count)
board.cache_hierarchy.l1dcaches.prefetcher.pfBufferHit         4286                       # number of redundant prefetches already in prefetch queue (Count)
board.cache_hierarchy.l1dcaches.prefetcher.pfInCache            0                       # number of redundant prefetches already in cache/mshr dropped (Count)
board.cache_hierarchy.l1dcaches.prefetcher.pfRemovedDemand           83                       # number of prefetches dropped due to a demand for the same address (Count)
board.cache_hierarchy.l1dcaches.prefetcher.pfRemovedFull            0                       # number of prefetches dropped due to prefetch queue size (Count)
board.cache_hierarchy.l1dcaches.prefetcher.pfSpanPage         3868                       # number of prefetches that crossed the page (Count)
board.cache_hierarchy.l1dcaches.prefetcher.pfUsefulSpanPage            0                       # number of prefetches that is useful and crossed the page (Count)
board.cache_hierarchy.l1dcaches.prefetcher.power_state.pwrStateResidencyTicks::UNDEFINED 178681870935                       # Cumulative time (in ticks) in various power states (Tick)
board.cache_hierarchy.l1dcaches.tags.tagsInUse   480.361006                       # Average ticks per tags in use ((Tick/Count))
board.cache_hierarchy.l1dcaches.tags.totalRefs     68559127                       # Total number of references to valid blocks. (Count)
board.cache_hierarchy.l1dcaches.tags.sampledRefs       760301                       # Sample count of references to valid blocks. (Count)
board.cache_hierarchy.l1dcaches.tags.avgRefs    90.173664                       # Average number of references to valid blocks. ((Count/Count))
board.cache_hierarchy.l1dcaches.tags.warmupTick       134865                       # The tick when the warmup percentage was hit. (Tick)
board.cache_hierarchy.l1dcaches.tags.occupancies::cache_hierarchy.l1dcaches.prefetcher   203.523551                       # Average occupied blocks per tick, per requestor ((Count/Tick))
board.cache_hierarchy.l1dcaches.tags.occupancies::processor.cores.core.data   276.837455                       # Average occupied blocks per tick, per requestor ((Count/Tick))
board.cache_hierarchy.l1dcaches.tags.avgOccs::cache_hierarchy.l1dcaches.prefetcher     0.397507                       # Average percentage of cache occupancy ((Ratio/Tick))
board.cache_hierarchy.l1dcaches.tags.avgOccs::processor.cores.core.data     0.540698                       # Average percentage of cache occupancy ((Ratio/Tick))
board.cache_hierarchy.l1dcaches.tags.avgOccs::total     0.938205                       # Average percentage of cache occupancy ((Ratio/Tick))
board.cache_hierarchy.l1dcaches.tags.occupanciesTaskId::1022          186                       # Occupied blocks per task id (Count)
board.cache_hierarchy.l1dcaches.tags.occupanciesTaskId::1024          326                       # Occupied blocks per task id (Count)
board.cache_hierarchy.l1dcaches.tags.ageTaskId_1022::4          186                       # Occupied blocks per task id, per block age (Count)
board.cache_hierarchy.l1dcaches.tags.ageTaskId_1024::0           98                       # Occupied blocks per task id, per block age (Count)
board.cache_hierarchy.l1dcaches.tags.ageTaskId_1024::1            2                       # Occupied blocks per task id, per block age (Count)
board.cache_hierarchy.l1dcaches.tags.ageTaskId_1024::4          226                       # Occupied blocks per task id, per block age (Count)
board.cache_hierarchy.l1dcaches.tags.ratioOccsTaskId::1022     0.363281                       # Ratio of occupied blocks and all blocks, per task id (Ratio)
board.cache_hierarchy.l1dcaches.tags.ratioOccsTaskId::1024     0.636719                       # Ratio of occupied blocks and all blocks, per task id (Ratio)
board.cache_hierarchy.l1dcaches.tags.tagAccesses    590575189                       # Number of tag accesses (Count)
board.cache_hierarchy.l1dcaches.tags.dataAccesses    590575189                       # Number of data accesses (Count)
board.cache_hierarchy.l1dcaches.tags.power_state.pwrStateResidencyTicks::UNDEFINED 178681870935                       # Cumulative time (in ticks) in various power states (Tick)
board.cache_hierarchy.l1icaches.demandHits::processor.cores.core.inst     94604583                       # number of demand (read+write) hits (Count)
board.cache_hierarchy.l1icaches.demandHits::total     94604583                       # number of demand (read+write) hits (Count)
board.cache_hierarchy.l1icaches.overallHits::processor.cores.core.inst     94604583                       # number of overall hits (Count)
board.cache_hierarchy.l1icaches.overallHits::total     94604583                       # number of overall hits (Count)
board.cache_hierarchy.l1icaches.demandMisses::processor.cores.core.inst         1754                       # number of demand (read+write) misses (Count)
board.cache_hierarchy.l1icaches.demandMisses::total         1754                       # number of demand (read+write) misses (Count)
board.cache_hierarchy.l1icaches.overallMisses::processor.cores.core.inst         1754                       # number of overall misses (Count)
board.cache_hierarchy.l1icaches.overallMisses::total         1754                       # number of overall misses (Count)
board.cache_hierarchy.l1icaches.demandMissLatency::processor.cores.core.inst     90667908                       # number of demand (read+write) miss ticks (Tick)
board.cache_hierarchy.l1icaches.demandMissLatency::total     90667908                       # number of demand (read+write) miss ticks (Tick)
board.cache_hierarchy.l1icaches.overallMissLatency::processor.cores.core.inst     90667908                       # number of overall miss ticks (Tick)
board.cache_hierarchy.l1icaches.overallMissLatency::total     90667908                       # number of overall miss ticks (Tick)
board.cache_hierarchy.l1icaches.demandAccesses::processor.cores.core.inst     94606337                       # number of demand (read+write) accesses (Count)
board.cache_hierarchy.l1icaches.demandAccesses::total     94606337                       # number of demand (read+write) accesses (Count)
board.cache_hierarchy.l1icaches.overallAccesses::processor.cores.core.inst     94606337                       # number of overall (read+write) accesses (Count)
board.cache_hierarchy.l1icaches.overallAccesses::total     94606337                       # number of overall (read+write) accesses (Count)
board.cache_hierarchy.l1icaches.demandMissRate::processor.cores.core.inst     0.000019                       # miss rate for demand accesses (Ratio)
board.cache_hierarchy.l1icaches.demandMissRate::total     0.000019                       # miss rate for demand accesses (Ratio)
board.cache_hierarchy.l1icaches.overallMissRate::processor.cores.core.inst     0.000019                       # miss rate for overall accesses (Ratio)
board.cache_hierarchy.l1icaches.overallMissRate::total     0.000019                       # miss rate for overall accesses (Ratio)
board.cache_hierarchy.l1icaches.demandAvgMissLatency::processor.cores.core.inst 51692.079818                       # average overall miss latency in ticks ((Tick/Count))
board.cache_hierarchy.l1icaches.demandAvgMissLatency::total 51692.079818                       # average overall miss latency in ticks ((Tick/Count))
board.cache_hierarchy.l1icaches.overallAvgMissLatency::processor.cores.core.inst 51692.079818                       # average overall miss latency ((Tick/Count))
board.cache_hierarchy.l1icaches.overallAvgMissLatency::total 51692.079818                       # average overall miss latency ((Tick/Count))
board.cache_hierarchy.l1icaches.blockedCycles::no_mshrs            0                       # number of cycles access was blocked (Cycle)
board.cache_hierarchy.l1icaches.blockedCycles::no_targets            0                       # number of cycles access was blocked (Cycle)
board.cache_hierarchy.l1icaches.blockedCauses::no_mshrs            0                       # number of times access was blocked (Count)
board.cache_hierarchy.l1icaches.blockedCauses::no_targets            0                       # number of times access was blocked (Count)
board.cache_hierarchy.l1icaches.avgBlocked::no_mshrs          nan                       # average number of cycles each access was blocked ((Cycle/Count))
board.cache_hierarchy.l1icaches.avgBlocked::no_targets          nan                       # average number of cycles each access was blocked ((Cycle/Count))
board.cache_hierarchy.l1icaches.writebacks::writebacks          814                       # number of writebacks (Count)
board.cache_hierarchy.l1icaches.writebacks::total          814                       # number of writebacks (Count)
board.cache_hierarchy.l1icaches.demandMshrHits::processor.cores.core.inst          426                       # number of demand (read+write) MSHR hits (Count)
board.cache_hierarchy.l1icaches.demandMshrHits::total          426                       # number of demand (read+write) MSHR hits (Count)
board.cache_hierarchy.l1icaches.overallMshrHits::processor.cores.core.inst          426                       # number of overall MSHR hits (Count)
board.cache_hierarchy.l1icaches.overallMshrHits::total          426                       # number of overall MSHR hits (Count)
board.cache_hierarchy.l1icaches.demandMshrMisses::processor.cores.core.inst         1328                       # number of demand (read+write) MSHR misses (Count)
board.cache_hierarchy.l1icaches.demandMshrMisses::total         1328                       # number of demand (read+write) MSHR misses (Count)
board.cache_hierarchy.l1icaches.overallMshrMisses::processor.cores.core.inst         1328                       # number of overall MSHR misses (Count)
board.cache_hierarchy.l1icaches.overallMshrMisses::total         1328                       # number of overall MSHR misses (Count)
board.cache_hierarchy.l1icaches.demandMshrMissLatency::processor.cores.core.inst     71318610                       # number of demand (read+write) MSHR miss ticks (Tick)
board.cache_hierarchy.l1icaches.demandMshrMissLatency::total     71318610                       # number of demand (read+write) MSHR miss ticks (Tick)
board.cache_hierarchy.l1icaches.overallMshrMissLatency::processor.cores.core.inst     71318610                       # number of overall MSHR miss ticks (Tick)
board.cache_hierarchy.l1icaches.overallMshrMissLatency::total     71318610                       # number of overall MSHR miss ticks (Tick)
board.cache_hierarchy.l1icaches.demandMshrMissRate::processor.cores.core.inst     0.000014                       # mshr miss ratio for demand accesses (Ratio)
board.cache_hierarchy.l1icaches.demandMshrMissRate::total     0.000014                       # mshr miss ratio for demand accesses (Ratio)
board.cache_hierarchy.l1icaches.overallMshrMissRate::processor.cores.core.inst     0.000014                       # mshr miss ratio for overall accesses (Ratio)
board.cache_hierarchy.l1icaches.overallMshrMissRate::total     0.000014                       # mshr miss ratio for overall accesses (Ratio)
board.cache_hierarchy.l1icaches.demandAvgMshrMissLatency::processor.cores.core.inst 53703.772590                       # average overall mshr miss latency ((Tick/Count))
board.cache_hierarchy.l1icaches.demandAvgMshrMissLatency::total 53703.772590                       # average overall mshr miss latency ((Tick/Count))
board.cache_hierarchy.l1icaches.overallAvgMshrMissLatency::processor.cores.core.inst 53703.772590                       # average overall mshr miss latency ((Tick/Count))
board.cache_hierarchy.l1icaches.overallAvgMshrMissLatency::total 53703.772590                       # average overall mshr miss latency ((Tick/Count))
board.cache_hierarchy.l1icaches.replacements          814                       # number of replacements (Count)
board.cache_hierarchy.l1icaches.ReadReq.hits::processor.cores.core.inst     94604583                       # number of ReadReq hits (Count)
board.cache_hierarchy.l1icaches.ReadReq.hits::total     94604583                       # number of ReadReq hits (Count)
board.cache_hierarchy.l1icaches.ReadReq.misses::processor.cores.core.inst         1754                       # number of ReadReq misses (Count)
board.cache_hierarchy.l1icaches.ReadReq.misses::total         1754                       # number of ReadReq misses (Count)
board.cache_hierarchy.l1icaches.ReadReq.missLatency::processor.cores.core.inst     90667908                       # number of ReadReq miss ticks (Tick)
board.cache_hierarchy.l1icaches.ReadReq.missLatency::total     90667908                       # number of ReadReq miss ticks (Tick)
board.cache_hierarchy.l1icaches.ReadReq.accesses::processor.cores.core.inst     94606337                       # number of ReadReq accesses(hits+misses) (Count)
board.cache_hierarchy.l1icaches.ReadReq.accesses::total     94606337                       # number of ReadReq accesses(hits+misses) (Count)
board.cache_hierarchy.l1icaches.ReadReq.missRate::processor.cores.core.inst     0.000019                       # miss rate for ReadReq accesses (Ratio)
board.cache_hierarchy.l1icaches.ReadReq.missRate::total     0.000019                       # miss rate for ReadReq accesses (Ratio)
board.cache_hierarchy.l1icaches.ReadReq.avgMissLatency::processor.cores.core.inst 51692.079818                       # average ReadReq miss latency ((Tick/Count))
board.cache_hierarchy.l1icaches.ReadReq.avgMissLatency::total 51692.079818                       # average ReadReq miss latency ((Tick/Count))
board.cache_hierarchy.l1icaches.ReadReq.mshrHits::processor.cores.core.inst          426                       # number of ReadReq MSHR hits (Count)
board.cache_hierarchy.l1icaches.ReadReq.mshrHits::total          426                       # number of ReadReq MSHR hits (Count)
board.cache_hierarchy.l1icaches.ReadReq.mshrMisses::processor.cores.core.inst         1328                       # number of ReadReq MSHR misses (Count)
board.cache_hierarchy.l1icaches.ReadReq.mshrMisses::total         1328                       # number of ReadReq MSHR misses (Count)
board.cache_hierarchy.l1icaches.ReadReq.mshrMissLatency::processor.cores.core.inst     71318610                       # number of ReadReq MSHR miss ticks (Tick)
board.cache_hierarchy.l1icaches.ReadReq.mshrMissLatency::total     71318610                       # number of ReadReq MSHR miss ticks (Tick)
board.cache_hierarchy.l1icaches.ReadReq.mshrMissRate::processor.cores.core.inst     0.000014                       # mshr miss rate for ReadReq accesses (Ratio)
board.cache_hierarchy.l1icaches.ReadReq.mshrMissRate::total     0.000014                       # mshr miss rate for ReadReq accesses (Ratio)
board.cache_hierarchy.l1icaches.ReadReq.avgMshrMissLatency::processor.cores.core.inst 53703.772590                       # average ReadReq mshr miss latency ((Tick/Count))
board.cache_hierarchy.l1icaches.ReadReq.avgMshrMissLatency::total 53703.772590                       # average ReadReq mshr miss latency ((Tick/Count))
board.cache_hierarchy.l1icaches.power_state.pwrStateResidencyTicks::UNDEFINED 178681870935                       # Cumulative time (in ticks) in various power states (Tick)
board.cache_hierarchy.l1icaches.prefetcher.demandMshrMisses         1328                       # demands not covered by prefetchs (Count)
board.cache_hierarchy.l1icaches.prefetcher.pfIssued            0                       # number of hwpf issued (Count)
board.cache_hierarchy.l1icaches.prefetcher.pfUseful            0                       # number of useful prefetch (Count)
board.cache_hierarchy.l1icaches.prefetcher.pfUsefulButMiss            0                       # number of hit on prefetch but cache block is not in an usable state (Count)
board.cache_hierarchy.l1icaches.prefetcher.accuracy          nan                       # accuracy of the prefetcher (Count)
board.cache_hierarchy.l1icaches.prefetcher.coverage            0                       # coverage brought by this prefetcher (Count)
board.cache_hierarchy.l1icaches.prefetcher.pfHitInCache            0                       # number of prefetches hitting in cache (Count)
board.cache_hierarchy.l1icaches.prefetcher.pfHitInMSHR            0                       # number of prefetches hitting in a MSHR (Count)
board.cache_hierarchy.l1icaches.prefetcher.pfHitInWB            0                       # number of prefetches hit in the Write Buffer (Count)
board.cache_hierarchy.l1icaches.prefetcher.pfLate            0                       # number of late prefetches (hitting in cache, MSHR or WB) (Count)
board.cache_hierarchy.l1icaches.prefetcher.pfIdentified            0                       # number of prefetch candidates identified (Count)
board.cache_hierarchy.l1icaches.prefetcher.pfBufferHit            0                       # number of redundant prefetches already in prefetch queue (Count)
board.cache_hierarchy.l1icaches.prefetcher.pfInCache            0                       # number of redundant prefetches already in cache/mshr dropped (Count)
board.cache_hierarchy.l1icaches.prefetcher.pfRemovedDemand            0                       # number of prefetches dropped due to a demand for the same address (Count)
board.cache_hierarchy.l1icaches.prefetcher.pfRemovedFull            0                       # number of prefetches dropped due to prefetch queue size (Count)
board.cache_hierarchy.l1icaches.prefetcher.pfSpanPage            0                       # number of prefetches that crossed the page (Count)
board.cache_hierarchy.l1icaches.prefetcher.pfUsefulSpanPage            0                       # number of prefetches that is useful and crossed the page (Count)
board.cache_hierarchy.l1icaches.prefetcher.power_state.pwrStateResidencyTicks::UNDEFINED 178681870935                       # Cumulative time (in ticks) in various power states (Tick)
board.cache_hierarchy.l1icaches.tags.tagsInUse   511.959686                       # Average ticks per tags in use ((Tick/Count))
board.cache_hierarchy.l1icaches.tags.totalRefs     94605910                       # Total number of references to valid blocks. (Count)
board.cache_hierarchy.l1icaches.tags.sampledRefs         1327                       # Sample count of references to valid blocks. (Count)
board.cache_hierarchy.l1icaches.tags.avgRefs 71293.074604                       # Average number of references to valid blocks. ((Count/Count))
board.cache_hierarchy.l1icaches.tags.warmupTick        70263                       # The tick when the warmup percentage was hit. (Tick)
board.cache_hierarchy.l1icaches.tags.occupancies::processor.cores.core.inst   511.959686                       # Average occupied blocks per tick, per requestor ((Count/Tick))
board.cache_hierarchy.l1icaches.tags.avgOccs::processor.cores.core.inst     0.999921                       # Average percentage of cache occupancy ((Ratio/Tick))
board.cache_hierarchy.l1icaches.tags.avgOccs::total     0.999921                       # Average percentage of cache occupancy ((Ratio/Tick))
board.cache_hierarchy.l1icaches.tags.occupanciesTaskId::1024          512                       # Occupied blocks per task id (Count)
board.cache_hierarchy.l1icaches.tags.ageTaskId_1024::0           99                       # Occupied blocks per task id, per block age (Count)
board.cache_hierarchy.l1icaches.tags.ageTaskId_1024::4          413                       # Occupied blocks per task id, per block age (Count)
board.cache_hierarchy.l1icaches.tags.ratioOccsTaskId::1024            1                       # Ratio of occupied blocks and all blocks, per task id (Ratio)
board.cache_hierarchy.l1icaches.tags.tagAccesses    756852023                       # Number of tag accesses (Count)
board.cache_hierarchy.l1icaches.tags.dataAccesses    756852023                       # Number of data accesses (Count)
board.cache_hierarchy.l1icaches.tags.power_state.pwrStateResidencyTicks::UNDEFINED 178681870935                       # Cumulative time (in ticks) in various power states (Tick)
board.cache_hierarchy.l2buses.transDist::ReadResp       760209                       # Transaction distribution (Count)
board.cache_hierarchy.l2buses.transDist::WritebackDirty         9088                       # Transaction distribution (Count)
board.cache_hierarchy.l2buses.transDist::WritebackClean          814                       # Transaction distribution (Count)
board.cache_hierarchy.l2buses.transDist::WriteClean         1896                       # Transaction distribution (Count)
board.cache_hierarchy.l2buses.transDist::CleanEvict       513926                       # Transaction distribution (Count)
board.cache_hierarchy.l2buses.transDist::HardPFReq        10534                       # Transaction distribution (Count)
board.cache_hierarchy.l2buses.transDist::UpgradeReq            1                       # Transaction distribution (Count)
board.cache_hierarchy.l2buses.transDist::UpgradeResp            1                       # Transaction distribution (Count)
board.cache_hierarchy.l2buses.transDist::ReadExReq         1419                       # Transaction distribution (Count)
board.cache_hierarchy.l2buses.transDist::ReadExResp         1419                       # Transaction distribution (Count)
board.cache_hierarchy.l2buses.transDist::ReadSharedReq       760210                       # Transaction distribution (Count)
board.cache_hierarchy.l2buses.transDist::CleanInvalidReq      5402800                       # Transaction distribution (Count)
board.cache_hierarchy.l2buses.transDist::CleanInvalidResp      5402800                       # Transaction distribution (Count)
board.cache_hierarchy.l2buses.pktCount_board.cache_hierarchy.l1icaches.mem_side_port::board.cache_hierarchy.l2caches.cpu_side_port         3468                       # Packet count per connected requestor and responder (Count)
board.cache_hierarchy.l2buses.pktCount_board.cache_hierarchy.l1dcaches.mem_side_port::board.cache_hierarchy.l2caches.cpu_side_port     12846890                       # Packet count per connected requestor and responder (Count)
board.cache_hierarchy.l2buses.pktCount::total     12850358                       # Packet count per connected requestor and responder (Count)
board.cache_hierarchy.l2buses.pktSize_board.cache_hierarchy.l1icaches.mem_side_port::board.cache_hierarchy.l2caches.cpu_side_port       136960                       # Cumulative packet size per connected requestor and responder (Byte)
board.cache_hierarchy.l2buses.pktSize_board.cache_hierarchy.l1dcaches.mem_side_port::board.cache_hierarchy.l2caches.cpu_side_port     49205440                       # Cumulative packet size per connected requestor and responder (Byte)
board.cache_hierarchy.l2buses.pktSize::total     49342400                       # Cumulative packet size per connected requestor and responder (Byte)
board.cache_hierarchy.l2buses.snoops            14759                       # Total snoops (Count)
board.cache_hierarchy.l2buses.snoopTraffic       156864                       # Total snoop traffic (Byte)
board.cache_hierarchy.l2buses.snoopFanout::samples      6179188                       # Request fanout histogram (Count)
board.cache_hierarchy.l2buses.snoopFanout::mean     0.000445                       # Request fanout histogram (Count)
board.cache_hierarchy.l2buses.snoopFanout::stdev     0.021080                       # Request fanout histogram (Count)
board.cache_hierarchy.l2buses.snoopFanout::underflows            0      0.00%      0.00% # Request fanout histogram (Count)
board.cache_hierarchy.l2buses.snoopFanout::0      6176441     99.96%     99.96% # Request fanout histogram (Count)
board.cache_hierarchy.l2buses.snoopFanout::1         2747      0.04%    100.00% # Request fanout histogram (Count)
board.cache_hierarchy.l2buses.snoopFanout::2            0      0.00%    100.00% # Request fanout histogram (Count)
board.cache_hierarchy.l2buses.snoopFanout::3            0      0.00%    100.00% # Request fanout histogram (Count)
board.cache_hierarchy.l2buses.snoopFanout::4            0      0.00%    100.00% # Request fanout histogram (Count)
board.cache_hierarchy.l2buses.snoopFanout::overflows            0      0.00%    100.00% # Request fanout histogram (Count)
board.cache_hierarchy.l2buses.snoopFanout::min_value            0                       # Request fanout histogram (Count)
board.cache_hierarchy.l2buses.snoopFanout::max_value            1                       # Request fanout histogram (Count)
board.cache_hierarchy.l2buses.snoopFanout::total      6179188                       # Request fanout histogram (Count)
board.cache_hierarchy.l2buses.power_state.pwrStateResidencyTicks::UNDEFINED 178681870935                       # Cumulative time (in ticks) in various power states (Tick)
board.cache_hierarchy.l2buses.reqLayer0.occupancy   2232744924                       # Layer occupancy (ticks) (Tick)
board.cache_hierarchy.l2buses.reqLayer0.utilization          0.0                       # Layer utilization (Ratio)
board.cache_hierarchy.l2buses.respLayer0.occupancy      1326669                       # Layer occupancy (ticks) (Tick)
board.cache_hierarchy.l2buses.respLayer0.utilization          0.0                       # Layer utilization (Ratio)
board.cache_hierarchy.l2buses.respLayer1.occupancy   2558673432                       # Layer occupancy (ticks) (Tick)
board.cache_hierarchy.l2buses.respLayer1.utilization          0.0                       # Layer utilization (Ratio)
board.cache_hierarchy.l2buses.snoop_filter.totRequests      6685931                       # Total number of requests made to the snoop filter. (Count)
board.cache_hierarchy.l2buses.snoop_filter.hitSingleRequests       760607                       # Number of requests hitting in the snoop filter with a single holder of the requested data. (Count)
board.cache_hierarchy.l2buses.snoop_filter.hitMultiRequests            6                       # Number of requests hitting in the snoop filter with multiple (>1) holders of the requested data. (Count)
board.cache_hierarchy.l2buses.snoop_filter.totSnoops         2738                       # Total number of snoops made to the snoop filter. (Count)
board.cache_hierarchy.l2buses.snoop_filter.hitSingleSnoops         2738                       # Number of snoops hitting in the snoop filter with a single holder of the requested data. (Count)
board.cache_hierarchy.l2buses.snoop_filter.hitMultiSnoops            0                       # Number of snoops hitting in the snoop filter with multiple (>1) holders of the requested data. (Count)
board.cache_hierarchy.l2caches.demandHits::cache_hierarchy.l1dcaches.prefetcher          653                       # number of demand (read+write) hits (Count)
board.cache_hierarchy.l2caches.demandHits::processor.cores.core.inst           43                       # number of demand (read+write) hits (Count)
board.cache_hierarchy.l2caches.demandHits::processor.cores.core.data        14134                       # number of demand (read+write) hits (Count)
board.cache_hierarchy.l2caches.demandHits::total        14830                       # number of demand (read+write) hits (Count)
board.cache_hierarchy.l2caches.overallHits::cache_hierarchy.l1dcaches.prefetcher          653                       # number of overall hits (Count)
board.cache_hierarchy.l2caches.overallHits::processor.cores.core.inst           43                       # number of overall hits (Count)
board.cache_hierarchy.l2caches.overallHits::processor.cores.core.data        14134                       # number of overall hits (Count)
board.cache_hierarchy.l2caches.overallHits::total        14830                       # number of overall hits (Count)
board.cache_hierarchy.l2caches.demandMisses::cache_hierarchy.l1dcaches.prefetcher         6103                       # number of demand (read+write) misses (Count)
board.cache_hierarchy.l2caches.demandMisses::processor.cores.core.inst         1284                       # number of demand (read+write) misses (Count)
board.cache_hierarchy.l2caches.demandMisses::processor.cores.core.data       739411                       # number of demand (read+write) misses (Count)
board.cache_hierarchy.l2caches.demandMisses::total       746798                       # number of demand (read+write) misses (Count)
board.cache_hierarchy.l2caches.overallMisses::cache_hierarchy.l1dcaches.prefetcher         6103                       # number of overall misses (Count)
board.cache_hierarchy.l2caches.overallMisses::processor.cores.core.inst         1284                       # number of overall misses (Count)
board.cache_hierarchy.l2caches.overallMisses::processor.cores.core.data       739411                       # number of overall misses (Count)
board.cache_hierarchy.l2caches.overallMisses::total       746798                       # number of overall misses (Count)
board.cache_hierarchy.l2caches.demandMissLatency::cache_hierarchy.l1dcaches.prefetcher    428021897                       # number of demand (read+write) miss ticks (Tick)
board.cache_hierarchy.l2caches.demandMissLatency::processor.cores.core.inst     70220376                       # number of demand (read+write) miss ticks (Tick)
board.cache_hierarchy.l2caches.demandMissLatency::processor.cores.core.data  38114081766                       # number of demand (read+write) miss ticks (Tick)
board.cache_hierarchy.l2caches.demandMissLatency::total  38612324039                       # number of demand (read+write) miss ticks (Tick)
board.cache_hierarchy.l2caches.overallMissLatency::cache_hierarchy.l1dcaches.prefetcher    428021897                       # number of overall miss ticks (Tick)
board.cache_hierarchy.l2caches.overallMissLatency::processor.cores.core.inst     70220376                       # number of overall miss ticks (Tick)
board.cache_hierarchy.l2caches.overallMissLatency::processor.cores.core.data  38114081766                       # number of overall miss ticks (Tick)
board.cache_hierarchy.l2caches.overallMissLatency::total  38612324039                       # number of overall miss ticks (Tick)
board.cache_hierarchy.l2caches.demandAccesses::cache_hierarchy.l1dcaches.prefetcher         6756                       # number of demand (read+write) accesses (Count)
board.cache_hierarchy.l2caches.demandAccesses::processor.cores.core.inst         1327                       # number of demand (read+write) accesses (Count)
board.cache_hierarchy.l2caches.demandAccesses::processor.cores.core.data       753545                       # number of demand (read+write) accesses (Count)
board.cache_hierarchy.l2caches.demandAccesses::total       761628                       # number of demand (read+write) accesses (Count)
board.cache_hierarchy.l2caches.overallAccesses::cache_hierarchy.l1dcaches.prefetcher         6756                       # number of overall (read+write) accesses (Count)
board.cache_hierarchy.l2caches.overallAccesses::processor.cores.core.inst         1327                       # number of overall (read+write) accesses (Count)
board.cache_hierarchy.l2caches.overallAccesses::processor.cores.core.data       753545                       # number of overall (read+write) accesses (Count)
board.cache_hierarchy.l2caches.overallAccesses::total       761628                       # number of overall (read+write) accesses (Count)
board.cache_hierarchy.l2caches.demandMissRate::cache_hierarchy.l1dcaches.prefetcher     0.903345                       # miss rate for demand accesses (Ratio)
board.cache_hierarchy.l2caches.demandMissRate::processor.cores.core.inst     0.967596                       # miss rate for demand accesses (Ratio)
board.cache_hierarchy.l2caches.demandMissRate::processor.cores.core.data     0.981243                       # miss rate for demand accesses (Ratio)
board.cache_hierarchy.l2caches.demandMissRate::total     0.980529                       # miss rate for demand accesses (Ratio)
board.cache_hierarchy.l2caches.overallMissRate::cache_hierarchy.l1dcaches.prefetcher     0.903345                       # miss rate for overall accesses (Ratio)
board.cache_hierarchy.l2caches.overallMissRate::processor.cores.core.inst     0.967596                       # miss rate for overall accesses (Ratio)
board.cache_hierarchy.l2caches.overallMissRate::processor.cores.core.data     0.981243                       # miss rate for overall accesses (Ratio)
board.cache_hierarchy.l2caches.overallMissRate::total     0.980529                       # miss rate for overall accesses (Ratio)
board.cache_hierarchy.l2caches.demandAvgMissLatency::cache_hierarchy.l1dcaches.prefetcher 70133.032443                       # average overall miss latency in ticks ((Tick/Count))
board.cache_hierarchy.l2caches.demandAvgMissLatency::processor.cores.core.inst 54688.766355                       # average overall miss latency in ticks ((Tick/Count))
board.cache_hierarchy.l2caches.demandAvgMissLatency::processor.cores.core.data 51546.544163                       # average overall miss latency in ticks ((Tick/Count))
board.cache_hierarchy.l2caches.demandAvgMissLatency::total 51703.839645                       # average overall miss latency in ticks ((Tick/Count))
board.cache_hierarchy.l2caches.overallAvgMissLatency::cache_hierarchy.l1dcaches.prefetcher 70133.032443                       # average overall miss latency ((Tick/Count))
board.cache_hierarchy.l2caches.overallAvgMissLatency::processor.cores.core.inst 54688.766355                       # average overall miss latency ((Tick/Count))
board.cache_hierarchy.l2caches.overallAvgMissLatency::processor.cores.core.data 51546.544163                       # average overall miss latency ((Tick/Count))
board.cache_hierarchy.l2caches.overallAvgMissLatency::total 51703.839645                       # average overall miss latency ((Tick/Count))
board.cache_hierarchy.l2caches.blockedCycles::no_mshrs          150                       # number of cycles access was blocked (Cycle)
board.cache_hierarchy.l2caches.blockedCycles::no_targets            0                       # number of cycles access was blocked (Cycle)
board.cache_hierarchy.l2caches.blockedCauses::no_mshrs            2                       # number of times access was blocked (Count)
board.cache_hierarchy.l2caches.blockedCauses::no_targets            0                       # number of times access was blocked (Count)
board.cache_hierarchy.l2caches.avgBlocked::no_mshrs           75                       # average number of cycles each access was blocked ((Cycle/Count))
board.cache_hierarchy.l2caches.avgBlocked::no_targets          nan                       # average number of cycles each access was blocked ((Cycle/Count))
board.cache_hierarchy.l2caches.writebacks::writebacks          554                       # number of writebacks (Count)
board.cache_hierarchy.l2caches.writebacks::total          554                       # number of writebacks (Count)
board.cache_hierarchy.l2caches.demandMshrHits::cache_hierarchy.l1dcaches.prefetcher         2188                       # number of demand (read+write) MSHR hits (Count)
board.cache_hierarchy.l2caches.demandMshrHits::total         2188                       # number of demand (read+write) MSHR hits (Count)
board.cache_hierarchy.l2caches.overallMshrHits::cache_hierarchy.l1dcaches.prefetcher         2188                       # number of overall MSHR hits (Count)
board.cache_hierarchy.l2caches.overallMshrHits::total         2188                       # number of overall MSHR hits (Count)
board.cache_hierarchy.l2caches.demandMshrMisses::cache_hierarchy.l1dcaches.prefetcher         3915                       # number of demand (read+write) MSHR misses (Count)
board.cache_hierarchy.l2caches.demandMshrMisses::processor.cores.core.inst         1284                       # number of demand (read+write) MSHR misses (Count)
board.cache_hierarchy.l2caches.demandMshrMisses::processor.cores.core.data       739411                       # number of demand (read+write) MSHR misses (Count)
board.cache_hierarchy.l2caches.demandMshrMisses::total       744610                       # number of demand (read+write) MSHR misses (Count)
board.cache_hierarchy.l2caches.overallMshrMisses::cache_hierarchy.l1dcaches.prefetcher         3915                       # number of overall MSHR misses (Count)
board.cache_hierarchy.l2caches.overallMshrMisses::cache_hierarchy.l2caches.prefetcher         6171                       # number of overall MSHR misses (Count)
board.cache_hierarchy.l2caches.overallMshrMisses::processor.cores.core.inst         1284                       # number of overall MSHR misses (Count)
board.cache_hierarchy.l2caches.overallMshrMisses::processor.cores.core.data       739411                       # number of overall MSHR misses (Count)
board.cache_hierarchy.l2caches.overallMshrMisses::total       750781                       # number of overall MSHR misses (Count)
board.cache_hierarchy.l2caches.demandMshrMissLatency::cache_hierarchy.l1dcaches.prefetcher    318301820                       # number of demand (read+write) MSHR miss ticks (Tick)
board.cache_hierarchy.l2caches.demandMshrMissLatency::processor.cores.core.inst     69793137                       # number of demand (read+write) MSHR miss ticks (Tick)
board.cache_hierarchy.l2caches.demandMshrMissLatency::processor.cores.core.data  37867857903                       # number of demand (read+write) MSHR miss ticks (Tick)
board.cache_hierarchy.l2caches.demandMshrMissLatency::total  38255952860                       # number of demand (read+write) MSHR miss ticks (Tick)
board.cache_hierarchy.l2caches.overallMshrMissLatency::cache_hierarchy.l1dcaches.prefetcher    318301820                       # number of overall MSHR miss ticks (Tick)
board.cache_hierarchy.l2caches.overallMshrMissLatency::cache_hierarchy.l2caches.prefetcher    367898792                       # number of overall MSHR miss ticks (Tick)
board.cache_hierarchy.l2caches.overallMshrMissLatency::processor.cores.core.inst     69793137                       # number of overall MSHR miss ticks (Tick)
board.cache_hierarchy.l2caches.overallMshrMissLatency::processor.cores.core.data  37867857903                       # number of overall MSHR miss ticks (Tick)
board.cache_hierarchy.l2caches.overallMshrMissLatency::total  38623851652                       # number of overall MSHR miss ticks (Tick)
board.cache_hierarchy.l2caches.demandMshrMissRate::cache_hierarchy.l1dcaches.prefetcher     0.579485                       # mshr miss ratio for demand accesses (Ratio)
board.cache_hierarchy.l2caches.demandMshrMissRate::processor.cores.core.inst     0.967596                       # mshr miss ratio for demand accesses (Ratio)
board.cache_hierarchy.l2caches.demandMshrMissRate::processor.cores.core.data     0.981243                       # mshr miss ratio for demand accesses (Ratio)
board.cache_hierarchy.l2caches.demandMshrMissRate::total     0.977656                       # mshr miss ratio for demand accesses (Ratio)
board.cache_hierarchy.l2caches.overallMshrMissRate::cache_hierarchy.l1dcaches.prefetcher     0.579485                       # mshr miss ratio for overall accesses (Ratio)
board.cache_hierarchy.l2caches.overallMshrMissRate::cache_hierarchy.l2caches.prefetcher          inf                       # mshr miss ratio for overall accesses (Ratio)
board.cache_hierarchy.l2caches.overallMshrMissRate::processor.cores.core.inst     0.967596                       # mshr miss ratio for overall accesses (Ratio)
board.cache_hierarchy.l2caches.overallMshrMissRate::processor.cores.core.data     0.981243                       # mshr miss ratio for overall accesses (Ratio)
board.cache_hierarchy.l2caches.overallMshrMissRate::total     0.985758                       # mshr miss ratio for overall accesses (Ratio)
board.cache_hierarchy.l2caches.demandAvgMshrMissLatency::cache_hierarchy.l1dcaches.prefetcher 81303.146871                       # average overall mshr miss latency ((Tick/Count))
board.cache_hierarchy.l2caches.demandAvgMshrMissLatency::processor.cores.core.inst 54356.025701                       # average overall mshr miss latency ((Tick/Count))
board.cache_hierarchy.l2caches.demandAvgMshrMissLatency::processor.cores.core.data 51213.544163                       # average overall mshr miss latency ((Tick/Count))
board.cache_hierarchy.l2caches.demandAvgMshrMissLatency::total 51377.167725                       # average overall mshr miss latency ((Tick/Count))
board.cache_hierarchy.l2caches.overallAvgMshrMissLatency::cache_hierarchy.l1dcaches.prefetcher 81303.146871                       # average overall mshr miss latency ((Tick/Count))
board.cache_hierarchy.l2caches.overallAvgMshrMissLatency::cache_hierarchy.l2caches.prefetcher 59617.370280                       # average overall mshr miss latency ((Tick/Count))
board.cache_hierarchy.l2caches.overallAvgMshrMissLatency::processor.cores.core.inst 54356.025701                       # average overall mshr miss latency ((Tick/Count))
board.cache_hierarchy.l2caches.overallAvgMshrMissLatency::processor.cores.core.data 51213.544163                       # average overall mshr miss latency ((Tick/Count))
board.cache_hierarchy.l2caches.overallAvgMshrMissLatency::total 51444.897583                       # average overall mshr miss latency ((Tick/Count))
board.cache_hierarchy.l2caches.replacements         2328                       # number of replacements (Count)
board.cache_hierarchy.l2caches.CleanInvalidReq.missLatency::processor.cores.core.data   4969179180                       # number of CleanInvalidReq miss ticks (Tick)
board.cache_hierarchy.l2caches.CleanInvalidReq.missLatency::total   4969179180                       # number of CleanInvalidReq miss ticks (Tick)
board.cache_hierarchy.l2caches.CleanInvalidReq.avgMissLatency::processor.cores.core.data          inf                       # average CleanInvalidReq miss latency ((Tick/Count))
board.cache_hierarchy.l2caches.CleanInvalidReq.avgMissLatency::total          inf                       # average CleanInvalidReq miss latency ((Tick/Count))
board.cache_hierarchy.l2caches.CleanInvalidReq.mshrMisses::processor.cores.core.data      5402800                       # number of CleanInvalidReq MSHR misses (Count)
board.cache_hierarchy.l2caches.CleanInvalidReq.mshrMisses::total      5402800                       # number of CleanInvalidReq MSHR misses (Count)
board.cache_hierarchy.l2caches.CleanInvalidReq.mshrMissLatency::processor.cores.core.data  34183515600                       # number of CleanInvalidReq MSHR miss ticks (Tick)
board.cache_hierarchy.l2caches.CleanInvalidReq.mshrMissLatency::total  34183515600                       # number of CleanInvalidReq MSHR miss ticks (Tick)
board.cache_hierarchy.l2caches.CleanInvalidReq.mshrMissRate::processor.cores.core.data          inf                       # mshr miss rate for CleanInvalidReq accesses (Ratio)
board.cache_hierarchy.l2caches.CleanInvalidReq.mshrMissRate::total          inf                       # mshr miss rate for CleanInvalidReq accesses (Ratio)
board.cache_hierarchy.l2caches.CleanInvalidReq.avgMshrMissLatency::processor.cores.core.data         6327                       # average CleanInvalidReq mshr miss latency ((Tick/Count))
board.cache_hierarchy.l2caches.CleanInvalidReq.avgMshrMissLatency::total         6327                       # average CleanInvalidReq mshr miss latency ((Tick/Count))
board.cache_hierarchy.l2caches.HardPFReq.mshrMisses::cache_hierarchy.l2caches.prefetcher         6171                       # number of HardPFReq MSHR misses (Count)
board.cache_hierarchy.l2caches.HardPFReq.mshrMisses::total         6171                       # number of HardPFReq MSHR misses (Count)
board.cache_hierarchy.l2caches.HardPFReq.mshrMissLatency::cache_hierarchy.l2caches.prefetcher    367898792                       # number of HardPFReq MSHR miss ticks (Tick)
board.cache_hierarchy.l2caches.HardPFReq.mshrMissLatency::total    367898792                       # number of HardPFReq MSHR miss ticks (Tick)
board.cache_hierarchy.l2caches.HardPFReq.mshrMissRate::cache_hierarchy.l2caches.prefetcher          inf                       # mshr miss rate for HardPFReq accesses (Ratio)
board.cache_hierarchy.l2caches.HardPFReq.mshrMissRate::total          inf                       # mshr miss rate for HardPFReq accesses (Ratio)
board.cache_hierarchy.l2caches.HardPFReq.avgMshrMissLatency::cache_hierarchy.l2caches.prefetcher 59617.370280                       # average HardPFReq mshr miss latency ((Tick/Count))
board.cache_hierarchy.l2caches.HardPFReq.avgMshrMissLatency::total 59617.370280                       # average HardPFReq mshr miss latency ((Tick/Count))
board.cache_hierarchy.l2caches.ReadExReq.hits::processor.cores.core.data          550                       # number of ReadExReq hits (Count)
board.cache_hierarchy.l2caches.ReadExReq.hits::total          550                       # number of ReadExReq hits (Count)
board.cache_hierarchy.l2caches.ReadExReq.misses::processor.cores.core.data          869                       # number of ReadExReq misses (Count)
board.cache_hierarchy.l2caches.ReadExReq.misses::total          869                       # number of ReadExReq misses (Count)
board.cache_hierarchy.l2caches.ReadExReq.missLatency::processor.cores.core.data     52254693                       # number of ReadExReq miss ticks (Tick)
board.cache_hierarchy.l2caches.ReadExReq.missLatency::total     52254693                       # number of ReadExReq miss ticks (Tick)
board.cache_hierarchy.l2caches.ReadExReq.accesses::processor.cores.core.data         1419                       # number of ReadExReq accesses(hits+misses) (Count)
board.cache_hierarchy.l2caches.ReadExReq.accesses::total         1419                       # number of ReadExReq accesses(hits+misses) (Count)
board.cache_hierarchy.l2caches.ReadExReq.missRate::processor.cores.core.data     0.612403                       # miss rate for ReadExReq accesses (Ratio)
board.cache_hierarchy.l2caches.ReadExReq.missRate::total     0.612403                       # miss rate for ReadExReq accesses (Ratio)
board.cache_hierarchy.l2caches.ReadExReq.avgMissLatency::processor.cores.core.data 60131.982739                       # average ReadExReq miss latency ((Tick/Count))
board.cache_hierarchy.l2caches.ReadExReq.avgMissLatency::total 60131.982739                       # average ReadExReq miss latency ((Tick/Count))
board.cache_hierarchy.l2caches.ReadExReq.mshrMisses::processor.cores.core.data          869                       # number of ReadExReq MSHR misses (Count)
board.cache_hierarchy.l2caches.ReadExReq.mshrMisses::total          869                       # number of ReadExReq MSHR misses (Count)
board.cache_hierarchy.l2caches.ReadExReq.mshrMissLatency::processor.cores.core.data     51965316                       # number of ReadExReq MSHR miss ticks (Tick)
board.cache_hierarchy.l2caches.ReadExReq.mshrMissLatency::total     51965316                       # number of ReadExReq MSHR miss ticks (Tick)
board.cache_hierarchy.l2caches.ReadExReq.mshrMissRate::processor.cores.core.data     0.612403                       # mshr miss rate for ReadExReq accesses (Ratio)
board.cache_hierarchy.l2caches.ReadExReq.mshrMissRate::total     0.612403                       # mshr miss rate for ReadExReq accesses (Ratio)
board.cache_hierarchy.l2caches.ReadExReq.avgMshrMissLatency::processor.cores.core.data 59798.982739                       # average ReadExReq mshr miss latency ((Tick/Count))
board.cache_hierarchy.l2caches.ReadExReq.avgMshrMissLatency::total 59798.982739                       # average ReadExReq mshr miss latency ((Tick/Count))
board.cache_hierarchy.l2caches.ReadSharedReq.hits::cache_hierarchy.l1dcaches.prefetcher          653                       # number of ReadSharedReq hits (Count)
board.cache_hierarchy.l2caches.ReadSharedReq.hits::processor.cores.core.inst           43                       # number of ReadSharedReq hits (Count)
board.cache_hierarchy.l2caches.ReadSharedReq.hits::processor.cores.core.data        13584                       # number of ReadSharedReq hits (Count)
board.cache_hierarchy.l2caches.ReadSharedReq.hits::total        14280                       # number of ReadSharedReq hits (Count)
board.cache_hierarchy.l2caches.ReadSharedReq.misses::cache_hierarchy.l1dcaches.prefetcher         6103                       # number of ReadSharedReq misses (Count)
board.cache_hierarchy.l2caches.ReadSharedReq.misses::processor.cores.core.inst         1284                       # number of ReadSharedReq misses (Count)
board.cache_hierarchy.l2caches.ReadSharedReq.misses::processor.cores.core.data       738542                       # number of ReadSharedReq misses (Count)
board.cache_hierarchy.l2caches.ReadSharedReq.misses::total       745929                       # number of ReadSharedReq misses (Count)
board.cache_hierarchy.l2caches.ReadSharedReq.missLatency::cache_hierarchy.l1dcaches.prefetcher    428021897                       # number of ReadSharedReq miss ticks (Tick)
board.cache_hierarchy.l2caches.ReadSharedReq.missLatency::processor.cores.core.inst     70220376                       # number of ReadSharedReq miss ticks (Tick)
board.cache_hierarchy.l2caches.ReadSharedReq.missLatency::processor.cores.core.data  38061827073                       # number of ReadSharedReq miss ticks (Tick)
board.cache_hierarchy.l2caches.ReadSharedReq.missLatency::total  38560069346                       # number of ReadSharedReq miss ticks (Tick)
board.cache_hierarchy.l2caches.ReadSharedReq.accesses::cache_hierarchy.l1dcaches.prefetcher         6756                       # number of ReadSharedReq accesses(hits+misses) (Count)
board.cache_hierarchy.l2caches.ReadSharedReq.accesses::processor.cores.core.inst         1327                       # number of ReadSharedReq accesses(hits+misses) (Count)
board.cache_hierarchy.l2caches.ReadSharedReq.accesses::processor.cores.core.data       752126                       # number of ReadSharedReq accesses(hits+misses) (Count)
board.cache_hierarchy.l2caches.ReadSharedReq.accesses::total       760209                       # number of ReadSharedReq accesses(hits+misses) (Count)
board.cache_hierarchy.l2caches.ReadSharedReq.missRate::cache_hierarchy.l1dcaches.prefetcher     0.903345                       # miss rate for ReadSharedReq accesses (Ratio)
board.cache_hierarchy.l2caches.ReadSharedReq.missRate::processor.cores.core.inst     0.967596                       # miss rate for ReadSharedReq accesses (Ratio)
board.cache_hierarchy.l2caches.ReadSharedReq.missRate::processor.cores.core.data     0.981939                       # miss rate for ReadSharedReq accesses (Ratio)
board.cache_hierarchy.l2caches.ReadSharedReq.missRate::total     0.981216                       # miss rate for ReadSharedReq accesses (Ratio)
board.cache_hierarchy.l2caches.ReadSharedReq.avgMissLatency::cache_hierarchy.l1dcaches.prefetcher 70133.032443                       # average ReadSharedReq miss latency ((Tick/Count))
board.cache_hierarchy.l2caches.ReadSharedReq.avgMissLatency::processor.cores.core.inst 54688.766355                       # average ReadSharedReq miss latency ((Tick/Count))
board.cache_hierarchy.l2caches.ReadSharedReq.avgMissLatency::processor.cores.core.data 51536.442170                       # average ReadSharedReq miss latency ((Tick/Count))
board.cache_hierarchy.l2caches.ReadSharedReq.avgMissLatency::total 51694.020940                       # average ReadSharedReq miss latency ((Tick/Count))
board.cache_hierarchy.l2caches.ReadSharedReq.mshrHits::cache_hierarchy.l1dcaches.prefetcher         2188                       # number of ReadSharedReq MSHR hits (Count)
board.cache_hierarchy.l2caches.ReadSharedReq.mshrHits::total         2188                       # number of ReadSharedReq MSHR hits (Count)
board.cache_hierarchy.l2caches.ReadSharedReq.mshrMisses::cache_hierarchy.l1dcaches.prefetcher         3915                       # number of ReadSharedReq MSHR misses (Count)
board.cache_hierarchy.l2caches.ReadSharedReq.mshrMisses::processor.cores.core.inst         1284                       # number of ReadSharedReq MSHR misses (Count)
board.cache_hierarchy.l2caches.ReadSharedReq.mshrMisses::processor.cores.core.data       738542                       # number of ReadSharedReq MSHR misses (Count)
board.cache_hierarchy.l2caches.ReadSharedReq.mshrMisses::total       743741                       # number of ReadSharedReq MSHR misses (Count)
board.cache_hierarchy.l2caches.ReadSharedReq.mshrMissLatency::cache_hierarchy.l1dcaches.prefetcher    318301820                       # number of ReadSharedReq MSHR miss ticks (Tick)
board.cache_hierarchy.l2caches.ReadSharedReq.mshrMissLatency::processor.cores.core.inst     69793137                       # number of ReadSharedReq MSHR miss ticks (Tick)
board.cache_hierarchy.l2caches.ReadSharedReq.mshrMissLatency::processor.cores.core.data  37815892587                       # number of ReadSharedReq MSHR miss ticks (Tick)
board.cache_hierarchy.l2caches.ReadSharedReq.mshrMissLatency::total  38203987544                       # number of ReadSharedReq MSHR miss ticks (Tick)
board.cache_hierarchy.l2caches.ReadSharedReq.mshrMissRate::cache_hierarchy.l1dcaches.prefetcher     0.579485                       # mshr miss rate for ReadSharedReq accesses (Ratio)
board.cache_hierarchy.l2caches.ReadSharedReq.mshrMissRate::processor.cores.core.inst     0.967596                       # mshr miss rate for ReadSharedReq accesses (Ratio)
board.cache_hierarchy.l2caches.ReadSharedReq.mshrMissRate::processor.cores.core.data     0.981939                       # mshr miss rate for ReadSharedReq accesses (Ratio)
board.cache_hierarchy.l2caches.ReadSharedReq.mshrMissRate::total     0.978338                       # mshr miss rate for ReadSharedReq accesses (Ratio)
[...]
board.processor.cores.core.fetch.pendingTrapStallCycles         3081                       # Number of stall cycles due to pending traps (Cycle)
board.processor.cores.core.fetch.cacheLines     94606337                       # Number of cache lines fetched (Count)
board.processor.cores.core.fetch.icacheSquashes          878                       # Number of outstanding Icache misses that were squashed (Count)
board.processor.cores.core.fetch.nisnDist::samples    536479902                       # Number of instructions fetched each cycle (Total) (Count)
board.processor.cores.core.fetch.nisnDist::mean     1.948117                       # Number of instructions fetched each cycle (Total) (Count)
board.processor.cores.core.fetch.nisnDist::stdev     3.074305                       # Number of instructions fetched each cycle (Total) (Count)
board.processor.cores.core.fetch.nisnDist::underflows            0      0.00%      0.00% # Number of instructions fetched each cycle (Total) (Count)
board.processor.cores.core.fetch.nisnDist::0    329888717     61.49%     61.49% # Number of instructions fetched each cycle (Total) (Count)
board.processor.cores.core.fetch.nisnDist::1     45203484      8.43%     69.92% # Number of instructions fetched each cycle (Total) (Count)
board.processor.cores.core.fetch.nisnDist::2      3644396      0.68%     70.60% # Number of instructions fetched each cycle (Total) (Count)
board.processor.cores.core.fetch.nisnDist::3     44697041      8.33%     78.93% # Number of instructions fetched each cycle (Total) (Count)
board.processor.cores.core.fetch.nisnDist::4      3821188      0.71%     79.64% # Number of instructions fetched each cycle (Total) (Count)
board.processor.cores.core.fetch.nisnDist::5      7588633      1.41%     81.05% # Number of instructions fetched each cycle (Total) (Count)
board.processor.cores.core.fetch.nisnDist::6      2753656      0.51%     81.57% # Number of instructions fetched each cycle (Total) (Count)
board.processor.cores.core.fetch.nisnDist::7      2270185      0.42%     81.99% # Number of instructions fetched each cycle (Total) (Count)
board.processor.cores.core.fetch.nisnDist::8     96612602     18.01%    100.00% # Number of instructions fetched each cycle (Total) (Count)
board.processor.cores.core.fetch.nisnDist::overflows            0      0.00%    100.00% # Number of instructions fetched each cycle (Total) (Count)
board.processor.cores.core.fetch.nisnDist::min_value            0                       # Number of instructions fetched each cycle (Total) (Count)
board.processor.cores.core.fetch.nisnDist::max_value            8                       # Number of instructions fetched each cycle (Total) (Count)
board.processor.cores.core.fetch.nisnDist::total    536479902                       # Number of instructions fetched each cycle (Total) (Count)
board.processor.cores.core.fetchStats0.numInsts    633838153                       # Number of instructions fetched (thread level) (Count)
board.processor.cores.core.fetchStats0.numOps            0                       # Number of ops (including micro ops) fetched (thread level) (Count)
board.processor.cores.core.fetchStats0.fetchRate     1.181251                       # Number of inst fetches per cycle ((Count/Cycle))
board.processor.cores.core.fetchStats0.numBranches     59842225                       # Number of branches fetched (Count)
board.processor.cores.core.fetchStats0.branchRate     0.111525                       # Number of branch fetches per cycle (Ratio)
board.processor.cores.core.fetchStats0.icacheStallCycles       110101                       # ICache total stall cycles (Cycle)
board.processor.cores.core.fetchStats0.numFetchSuspends            0                       # Number of times Execute suspended instruction fetching (Count)
board.processor.cores.core.iew.idleCycles            0                       # Number of cycles IEW is idle (Cycle)
board.processor.cores.core.iew.squashCycles      5886669                       # Number of cycles IEW is squashing (Cycle)
board.processor.cores.core.iew.blockCycles    168584423                       # Number of cycles IEW is blocking (Cycle)
board.processor.cores.core.iew.unblockCycles     10935924                       # Number of cycles IEW is unblocking (Cycle)
board.processor.cores.core.iew.dispatchedInsts    760348207                       # Number of instructions dispatched to IQ (Count)
board.processor.cores.core.iew.dispSquashedInsts          224                       # Number of squashed instructions skipped by dispatch (Count)
board.processor.cores.core.iew.dispLoadInsts    153474330                       # Number of dispatched load instructions (Count)
board.processor.cores.core.iew.dispStoreInsts     97759550                       # Number of dispatched store instructions (Count)
board.processor.cores.core.iew.dispNonSpecInsts           21                       # Number of dispatched non-speculative instructions (Count)
board.processor.cores.core.iew.iqFullEvents      5593972                       # Number of times the IQ has become full, causing a stall (Count)
board.processor.cores.core.iew.lsqFullEvents         1228                       # Number of times the LSQ has become full, causing a stall (Count)
board.processor.cores.core.iew.memOrderViolationEvents      5823795                       # Number of memory order violations (Count)
board.processor.cores.core.iew.predictedTakenIncorrect       154281                       # Number of branches that were predicted taken incorrectly (Count)
board.processor.cores.core.iew.predictedNotTakenIncorrect        11310                       # Number of branches that were predicted not taken incorrectly (Count)
board.processor.cores.core.iew.branchMispredicts       165591                       # Number of branch mispredicts detected at execute (Count)
board.processor.cores.core.iew.instsToCommit    458550180                       # Cumulative count of insts sent to commit (Count)
board.processor.cores.core.iew.writebackCount    458054229                       # Cumulative count of insts written-back (Count)
board.processor.cores.core.iew.producerInst    328615298                       # Number of instructions producing a value (Count)
board.processor.cores.core.iew.consumerInst    426957290                       # Number of instructions consuming a value (Count)
board.processor.cores.core.iew.wbRate        0.853652                       # Insts written-back per cycle ((Count/Cycle))
board.processor.cores.core.iew.wbFanout      0.769668                       # Average fanout of values written-back ((Count/Count))
board.processor.cores.core.interrupts.clk_domain.clock         5328                       # Clock period in ticks (Tick)
board.processor.cores.core.lsq0.forwLoads     27701153                       # Number of loads that had data forwarded from stores (Count)
board.processor.cores.core.lsq0.squashedLoads    101260574                       # Number of loads squashed (Count)
board.processor.cores.core.lsq0.ignoredResponses          106                       # Number of memory responses ignored because the instruction is squashed (Count)
board.processor.cores.core.lsq0.memOrderViolation      5823795                       # Number of memory ordering violations (Count)
board.processor.cores.core.lsq0.squashedStores     66680676                       # Number of stores squashed (Count)
board.processor.cores.core.lsq0.rescheduledLoads          239                       # Number of loads that were rescheduled (Count)
board.processor.cores.core.lsq0.blockedByCache            0                       # Number of times an access to memory failed due to the cache being blocked (Count)
board.processor.cores.core.lsq0.loadToUse::samples     52213756                       # Distribution of cycle latency between the first time a load is issued and its completion (Unspecified)
board.processor.cores.core.lsq0.loadToUse::mean     4.284267                       # Distribution of cycle latency between the first time a load is issued and its completion (Unspecified)
board.processor.cores.core.lsq0.loadToUse::stdev    20.737086                       # Distribution of cycle latency between the first time a load is issued and its completion (Unspecified)
board.processor.cores.core.lsq0.loadToUse::0-9     51454527     98.55%     98.55% # Distribution of cycle latency between the first time a load is issued and its completion (Unspecified)
board.processor.cores.core.lsq0.loadToUse::10-19        18477      0.04%     98.58% # Distribution of cycle latency between the first time a load is issued and its completion (Unspecified)
board.processor.cores.core.lsq0.loadToUse::20-29          394      0.00%     98.58% # Distribution of cycle latency between the first time a load is issued and its completion (Unspecified)
board.processor.cores.core.lsq0.loadToUse::30-39          186      0.00%     98.58% # Distribution of cycle latency between the first time a load is issued and its completion (Unspecified)
board.processor.cores.core.lsq0.loadToUse::40-49           91      0.00%     98.58% # Distribution of cycle latency between the first time a load is issued and its completion (Unspecified)
board.processor.cores.core.lsq0.loadToUse::50-59         5259      0.01%     98.59% # Distribution of cycle latency between the first time a load is issued and its completion (Unspecified)
board.processor.cores.core.lsq0.loadToUse::60-69           69      0.00%     98.59% # Distribution of cycle latency between the first time a load is issued and its completion (Unspecified)
board.processor.cores.core.lsq0.loadToUse::70-79          438      0.00%     98.59% # Distribution of cycle latency between the first time a load is issued and its completion (Unspecified)
board.processor.cores.core.lsq0.loadToUse::80-89          107      0.00%     98.59% # Distribution of cycle latency between the first time a load is issued and its completion (Unspecified)
board.processor.cores.core.lsq0.loadToUse::90-99          131      0.00%     98.59% # Distribution of cycle latency between the first time a load is issued and its completion (Unspecified)
board.processor.cores.core.lsq0.loadToUse::100-109          162      0.00%     98.59% # Distribution of cycle latency between the first time a load is issued and its completion (Unspecified)
board.processor.cores.core.lsq0.loadToUse::110-119          188      0.00%     98.59% # Distribution of cycle latency between the first time a load is issued and its completion (Unspecified)
board.processor.cores.core.lsq0.loadToUse::120-129          148      0.00%     98.60% # Distribution of cycle latency between the first time a load is issued and its completion (Unspecified)
board.processor.cores.core.lsq0.loadToUse::130-139          228      0.00%     98.60% # Distribution of cycle latency between the first time a load is issued and its completion (Unspecified)
board.processor.cores.core.lsq0.loadToUse::140-149       585824      1.12%     99.72% # Distribution of cycle latency between the first time a load is issued and its completion (Unspecified)
board.processor.cores.core.lsq0.loadToUse::150-159          124      0.00%     99.72% # Distribution of cycle latency between the first time a load is issued and its completion (Unspecified)
board.processor.cores.core.lsq0.loadToUse::160-169          718      0.00%     99.72% # Distribution of cycle latency between the first time a load is issued and its completion (Unspecified)
board.processor.cores.core.lsq0.loadToUse::170-179          245      0.00%     99.72% # Distribution of cycle latency between the first time a load is issued and its completion (Unspecified)
board.processor.cores.core.lsq0.loadToUse::180-189       128192      0.25%     99.97% # Distribution of cycle latency between the first time a load is issued and its completion (Unspecified)
board.processor.cores.core.lsq0.loadToUse::190-199          349      0.00%     99.97% # Distribution of cycle latency between the first time a load is issued and its completion (Unspecified)
board.processor.cores.core.lsq0.loadToUse::200-209          344      0.00%     99.97% # Distribution of cycle latency between the first time a load is issued and its completion (Unspecified)
board.processor.cores.core.lsq0.loadToUse::210-219           71      0.00%     99.97% # Distribution of cycle latency between the first time a load is issued and its completion (Unspecified)
board.processor.cores.core.lsq0.loadToUse::220-229         8328      0.02%     99.98% # Distribution of cycle latency between the first time a load is issued and its completion (Unspecified)
board.processor.cores.core.lsq0.loadToUse::230-239          118      0.00%     99.98% # Distribution of cycle latency between the first time a load is issued and its completion (Unspecified)
board.processor.cores.core.lsq0.loadToUse::240-249           36      0.00%     99.98% # Distribution of cycle latency between the first time a load is issued and its completion (Unspecified)
board.processor.cores.core.lsq0.loadToUse::250-259           86      0.00%     99.98% # Distribution of cycle latency between the first time a load is issued and its completion (Unspecified)
board.processor.cores.core.lsq0.loadToUse::260-269           13      0.00%     99.98% # Distribution of cycle latency between the first time a load is issued and its completion (Unspecified)
board.processor.cores.core.lsq0.loadToUse::270-279            4      0.00%     99.98% # Distribution of cycle latency between the first time a load is issued and its completion (Unspecified)
board.processor.cores.core.lsq0.loadToUse::280-289           45      0.00%     99.98% # Distribution of cycle latency between the first time a load is issued and its completion (Unspecified)
board.processor.cores.core.lsq0.loadToUse::290-299           26      0.00%     99.98% # Distribution of cycle latency between the first time a load is issued and its completion (Unspecified)
board.processor.cores.core.lsq0.loadToUse::overflows         8828      0.02%    100.00% # Distribution of cycle latency between the first time a load is issued and its completion (Unspecified)
board.processor.cores.core.lsq0.loadToUse::min_value            2                       # Distribution of cycle latency between the first time a load is issued and its completion (Unspecified)
board.processor.cores.core.lsq0.loadToUse::max_value         1134                       # Distribution of cycle latency between the first time a load is issued and its completion (Unspecified)
board.processor.cores.core.lsq0.loadToUse::total     52213756                       # Distribution of cycle latency between the first time a load is issued and its completion (Unspecified)
board.processor.cores.core.mmu.dtb.rdAccesses     70349602                       # TLB accesses on read requests (Count)
board.processor.cores.core.mmu.dtb.wrAccesses     36618225                       # TLB accesses on write requests (Count)
board.processor.cores.core.mmu.dtb.rdMisses          421                       # TLB misses on read requests (Count)
board.processor.cores.core.mmu.dtb.wrMisses          161                       # TLB misses on write requests (Count)
board.processor.cores.core.mmu.dtb.walker.power_state.pwrStateResidencyTicks::UNDEFINED 178681870935                       # Cumulative time (in ticks) in various power states (Tick)
board.processor.cores.core.mmu.itb.rdAccesses            0                       # TLB accesses on read requests (Count)
board.processor.cores.core.mmu.itb.wrAccesses     94606838                       # TLB accesses on write requests (Count)
board.processor.cores.core.mmu.itb.rdMisses            0                       # TLB misses on read requests (Count)
board.processor.cores.core.mmu.itb.wrMisses          634                       # TLB misses on write requests (Count)
board.processor.cores.core.mmu.itb.walker.power_state.pwrStateResidencyTicks::UNDEFINED 178681870935                       # Cumulative time (in ticks) in various power states (Tick)
board.processor.cores.core.power_state.pwrStateResidencyTicks::ON 178681870935                       # Cumulative time (in ticks) in various power states (Tick)
board.processor.cores.core.rename.squashCycles      5886669                       # Number of cycles rename is squashing (Cycle)
board.processor.cores.core.rename.idleCycles     33218516                       # Number of cycles rename is idle (Cycle)
board.processor.cores.core.rename.blockCycles    199682728                       # Number of cycles rename is blocking (Cycle)
board.processor.cores.core.rename.serializeStallCycles    130617353                       # count of cycles rename stalled for serializing inst (Cycle)
board.processor.cores.core.rename.runCycles     98341501                       # Number of cycles rename is running (Cycle)
board.processor.cores.core.rename.unblockCycles     68733135                       # Number of cycles rename is unblocking (Cycle)
board.processor.cores.core.rename.renamedInsts    804573059                       # Number of instructions processed by rename (Count)
board.processor.cores.core.rename.ROBFullEvents         3692                       # Number of times rename has blocked due to ROB full (Count)
board.processor.cores.core.rename.IQFullEvents     57219349                       # Number of times rename has blocked due to IQ full (Count)
board.processor.cores.core.rename.LQFullEvents         1049                       # Number of times rename has blocked due to LQ full (Count)
board.processor.cores.core.rename.SQFullEvents        93480                       # Number of times rename has blocked due to SQ full (Count)
board.processor.cores.core.rename.renamedOperands   1374702917                       # Number of destination operands rename has renamed (Count)
board.processor.cores.core.rename.lookups   2631524292                       # Number of register rename lookups that rename has made (Count)
board.processor.cores.core.rename.intLookups    896641365                       # Number of integer rename lookups (Count)
board.processor.cores.core.rename.fpLookups        45013                       # Number of floating rename lookups (Count)
board.processor.cores.core.rename.committedMaps    458088667                       # Number of HB maps that are committed (Count)
board.processor.cores.core.rename.undoneMaps    916614241                       # Number of HB maps that are undone due to squashing (Count)
board.processor.cores.core.rename.serializing      1667131                       # count of serializing insts renamed (Count)
board.processor.cores.core.rename.tempSerializing           41                       # count of temporary serializing insts renamed (Count)
board.processor.cores.core.rename.skidInsts    181640396                       # count of insts added to the skid buffer (Count)
board.processor.cores.core.rob.reads       1231540904                       # The number of ROB reads (Count)
board.processor.cores.core.rob.writes      1582827517                       # The number of ROB writes (Count)
board.processor.cores.core.thread_0.numInsts    162314119                       # Number of Instructions committed (Count)
board.processor.cores.core.thread_0.numOps    264178199                       # Number of Ops committed (Count)
board.processor.cores.core.thread_0.numMemRefs            0                       # Number of Memory References (Count)
board.processor.cores.core.workload.numSyscalls           74                       # Number of system calls (Count)
board.workload.inst.arm                             0                       # number of arm instructions executed (Count)
board.workload.inst.quiesce                         0                       # number of quiesce instructions executed (Count)

---------- End Simulation Statistics   ----------
