
---------- Begin Simulation Statistics ----------
simSeconds                                   0.178667                       # Number of seconds simulated (Second)
simTicks                                 178666945209                       # Number of ticks simulated (Tick)
finalTick                                178666945209                       # Number of ticks from beginning of simulation (restored from checkpoints and never reset) (Tick)
simFreq                                  1000000000000                       # The number of ticks per simulated second ((Tick/Second))
hostSeconds                                   2036.47                       # Real time elapsed on the host (Second)
hostTickRate                                 87733708                       # The number of ticks simulated per host second (ticks/s) ((Tick/Second))
hostMemory                                    2082124                       # Number of bytes of host memory used (Byte)
simInsts                                    162307448                       # Number of instructions simulated (Count)
simOps                                      264170227                       # Number of ops (including micro ops) simulated (Count)
hostInstRate                                    79700                       # Simulator instruction rate (inst/s) ((Count/Second))
hostOpRate                                     129720                       # Simulator op (including micro ops) rate (op/s) ((Count/Second))
board.cache_hierarchy.dptw_caches.blockedCycles::no_mshrs            0                       # number of cycles access was blocked (Cycle)
board.cache_hierarchy.dptw_caches.blockedCycles::no_targets            0                       # number of cycles access was blocked (Cycle)
board.cache_hierarchy.dptw_caches.blockedCauses::no_mshrs            0                       # number of times access was blocked (Count)
board.cache_hierarchy.dptw_caches.blockedCauses::no_targets            0                       # number of times access was blocked (Count)
board.cache_hierarchy.dptw_caches.avgBlocked::no_mshrs          nan                       # average number of cycles each access was blocked ((Cycle/Count))
board.cache_hierarchy.dptw_caches.avgBlocked::no_targets          nan                       # average number of cycles each access was blocked ((Cycle/Count))
board.cache_hierarchy.dptw_caches.replacements            0                       # number of replacements (Count)
board.cache_hierarchy.dptw_caches.power_state.pwrStateResidencyTicks::UNDEFINED 178666945209                       # Cumulative time (in ticks) in various power states (Tick)
board.cache_hierarchy.dptw_caches.tags.tagsInUse            0                       # Average ticks per tags in use ((Tick/Count))
board.cache_hierarchy.dptw_caches.tags.totalRefs            0                       # Total number of references to valid blocks. (Count)
board.cache_hierarchy.dptw_caches.tags.sampledRefs            0                       # Sample count of references to valid blocks. (Count)
board.cache_hierarchy.dptw_caches.tags.avgRefs          nan                       # Average number of references to valid blocks. ((Count/Count))
board.cache_hierarchy.dptw_caches.tags.warmupTick            0                       # The tick when the warmup percentage was hit. (Tick)
board.cache_hierarchy.dptw_caches.tags.tagAccesses            0                       # Number of tag accesses (Count)
board.cache_hierarchy.dptw_caches.tags.dataAccesses            0                       # Number of data accesses (Count)
board.cache_hierarchy.dptw_caches.tags.power_state.pwrStateResidencyTicks::UNDEFINED 178666945209                       # Cumulative time (in ticks) in various power states (Tick)
board.cache_hierarchy.iptw_caches.blockedCycles::no_mshrs            0                       # number of cycles access was blocked (Cycle)
board.cache_hierarchy.iptw_caches.blockedCycles::no_targets            0                       # number of cycles access was blocked (Cycle)
board.cache_hierarchy.iptw_caches.blockedCauses::no_mshrs            0                       # number of times access was blocked (Count)
board.cache_hierarchy.iptw_caches.blockedCauses::no_targets            0                       # number of times access was blocked (Count)
board.cache_hierarchy.iptw_caches.avgBlocked::no_mshrs          nan                       # average number of cycles each access was blocked ((Cycle/Count))
board.cache_hierarchy.iptw_caches.avgBlocked::no_targets          nan                       # average number of cycles each access was blocked ((Cycle/Count))
board.cache_hierarchy.iptw_caches.replacements            0                       # number of replacements (Count)
board.cache_hierarchy.iptw_caches.power_state.pwrStateResidencyTicks::UNDEFINED 178666945209                       # Cumulative time (in ticks) in various power states (Tick)
board.cache_hierarchy.iptw_caches.tags.tagsInUse            0                       # Average ticks per tags in use ((Tick/Count))
board.cache_hierarchy.iptw_caches.tags.totalRefs            0                       # Total number of references to valid blocks. (Count)
board.cache_hierarchy.iptw_caches.tags.sampledRefs            0                       # Sample count of references to valid blocks. (Count)
board.cache_hierarchy.iptw_caches.tags.avgRefs          nan                       # Average number of references to valid blocks. ((Count/Count))
board.cache_hierarchy.iptw_caches.tags.warmupTick            0                       # The tick when the warmup percentage was hit. (Tick)
board.cache_hierarchy.iptw_caches.tags.tagAccesses            0                       # Number of tag accesses (Count)
board.cache_hierarchy.iptw_caches.tags.dataAccesses            0                       # Number of data accesses (Count)
board.cache_hierarchy.iptw_caches.tags.power_state.pwrStateResidencyTicks::UNDEFINED 178666945209                       # Cumulative time (in ticks) in various power states (Tick)
board.cache_hierarchy.l1dcaches.demandHits::processor.cores.core.data     67551250                       # number of demand (read+write) hits (Count)
board.cache_hierarchy.l1dcaches.demandHits::total     67551250                       # number of demand (read+write) hits (Count)
board.cache_hierarchy.l1dcaches.overallHits::processor.cores.core.data     67551250                       # number of overall hits (Count)
board.cache_hierarchy.l1dcaches.overallHits::total     67551250                       # number of overall hits (Count)
board.cache_hierarchy.l1dcaches.demandMisses::processor.cores.core.data       764380                       # number of demand (read+write) misses (Count)
board.cache_hierarchy.l1dcaches.demandMisses::total       764380                       # number of demand (read+write) misses (Count)
board.cache_hierarchy.l1dcaches.overallMisses::processor.cores.core.data       764380                       # number of overall misses (Count)
board.cache_hierarchy.l1dcaches.overallMisses::total       764380                       # number of overall misses (Count)
board.cache_hierarchy.l1dcaches.demandMissLatency::processor.cores.core.data  39181121991                       # number of demand (read+write) miss ticks (Tick)
board.cache_hierarchy.l1dcaches.demandMissLatency::total  39181121991                       # number of demand (read+write) miss ticks (Tick)
board.cache_hierarchy.l1dcaches.overallMissLatency::processor.cores.core.data  39181121991                       # number of overall miss ticks (Tick)
board.cache_hierarchy.l1dcaches.overallMissLatency::total  39181121991                       # number of overall miss ticks (Tick)
board.cache_hierarchy.l1dcaches.demandAccesses::processor.cores.core.data     68315630                       # number of demand (read+write) accesses (Count)
board.cache_hierarchy.l1dcaches.demandAccesses::total     68315630                       # number of demand (read+write) accesses (Count)
board.cache_hierarchy.l1dcaches.overallAccesses::processor.cores.core.data     68315630                       # number of overall (read+write) accesses (Count)
board.cache_hierarchy.l1dcaches.overallAccesses::total     68315630                       # number of overall (read+write) accesses (Count)
board.cache_hierarchy.l1dcaches.demandMissRate::processor.cores.core.data     0.011189                       # miss rate for demand accesses (Ratio)
board.cache_hierarchy.l1dcaches.demandMissRate::total     0.011189                       # miss rate for demand accesses (Ratio)
board.cache_hierarchy.l1dcaches.overallMissRate::processor.cores.core.data     0.011189                       # miss rate for overall accesses (Ratio)
board.cache_hierarchy.l1dcaches.overallMissRate::total     0.011189                       # miss rate for overall accesses (Ratio)
board.cache_hierarchy.l1dcaches.demandAvgMissLatency::processor.cores.core.data 51258.695925                       # average overall miss latency in ticks ((Tick/Count))
board.cache_hierarchy.l1dcaches.demandAvgMissLatency::total 51258.695925                       # average overall miss latency in ticks ((Tick/Count))
board.cache_hierarchy.l1dcaches.overallAvgMissLatency::processor.cores.core.data 51258.695925                       # average overall miss latency ((Tick/Count))
board.cache_hierarchy.l1dcaches.overallAvgMissLatency::total 51258.695925                       # average overall miss latency ((Tick/Count))
board.cache_hierarchy.l1dcaches.blockedCycles::no_mshrs            0                       # number of cycles access was blocked (Cycle)
board.cache_hierarchy.l1dcaches.blockedCycles::no_targets            0                       # number of cycles access was blocked (Cycle)
board.cache_hierarchy.l1dcaches.blockedCauses::no_mshrs            0                       # number of times access was blocked (Count)
board.cache_hierarchy.l1dcaches.blockedCauses::no_targets            0                       # number of times access was blocked (Count)
board.cache_hierarchy.l1dcaches.avgBlocked::no_mshrs          nan                       # average number of cycles each access was blocked ((Cycle/Count))
board.cache_hierarchy.l1dcaches.avgBlocked::no_targets          nan                       # average number of cycles each access was blocked ((Cycle/Count))
board.cache_hierarchy.l1dcaches.writebacks::writebacks         8487                       # number of writebacks (Count)
board.cache_hierarchy.l1dcaches.writebacks::total         8487                       # number of writebacks (Count)
board.cache_hierarchy.l1dcaches.demandMshrHits::processor.cores.core.data        10789                       # number of demand (read+write) MSHR hits (Count)
board.cache_hierarchy.l1dcaches.demandMshrHits::total        10789                       # number of demand (read+write) MSHR hits (Count)
board.cache_hierarchy.l1dcaches.overallMshrHits::processor.cores.core.data        10789                       # number of overall MSHR hits (Count)
board.cache_hierarchy.l1dcaches.overallMshrHits::total        10789                       # number of overall MSHR hits (Count)
board.cache_hierarchy.l1dcaches.demandMshrMisses::processor.cores.core.data       753591                       # number of demand (read+write) MSHR misses (Count)
board.cache_hierarchy.l1dcaches.demandMshrMisses::total       753591                       # number of demand (read+write) MSHR misses (Count)
board.cache_hierarchy.l1dcaches.overallMshrMisses::cache_hierarchy.l1dcaches.prefetcher         6596                       # number of overall MSHR misses (Count)
board.cache_hierarchy.l1dcaches.overallMshrMisses::processor.cores.core.data       753591                       # number of overall MSHR misses (Count)
board.cache_hierarchy.l1dcaches.overallMshrMisses::total       760187                       # number of overall MSHR misses (Count)
board.cache_hierarchy.l1dcaches.demandMshrMissLatency::processor.cores.core.data  38674533420                       # number of demand (read+write) MSHR miss ticks (Tick)
board.cache_hierarchy.l1dcaches.demandMshrMissLatency::total  38674533420                       # number of demand (read+write) MSHR miss ticks (Tick)
board.cache_hierarchy.l1dcaches.overallMshrMissLatency::cache_hierarchy.l1dcaches.prefetcher    421888977                       # number of overall MSHR miss ticks (Tick)
board.cache_hierarchy.l1dcaches.overallMshrMissLatency::processor.cores.core.data  38674533420                       # number of overall MSHR miss ticks (Tick)
board.cache_hierarchy.l1dcaches.overallMshrMissLatency::total  39096422397                       # number of overall MSHR miss ticks (Tick)
board.cache_hierarchy.l1dcaches.demandMshrMissRate::processor.cores.core.data     0.011031                       # mshr miss ratio for demand accesses (Ratio)
board.cache_hierarchy.l1dcaches.demandMshrMissRate::total     0.011031                       # mshr miss ratio for demand accesses (Ratio)
board.cache_hierarchy.l1dcaches.overallMshrMissRate::cache_hierarchy.l1dcaches.prefetcher          inf                       # mshr miss ratio for overall accesses (Ratio)
board.cache_hierarchy.l1dcaches.overallMshrMissRate::processor.cores.core.data     0.011031                       # mshr miss ratio for overall accesses (Ratio)
board.cache_hierarchy.l1dcaches.overallMshrMissRate::total     0.011128                       # mshr miss ratio for overall accesses (Ratio)
board.cache_hierarchy.l1dcaches.demandAvgMshrMissLatency::processor.cores.core.data 51320.322854                       # average overall mshr miss latency ((Tick/Count))
board.cache_hierarchy.l1dcaches.demandAvgMshrMissLatency::total 51320.322854                       # average overall mshr miss latency ((Tick/Count))
board.cache_hierarchy.l1dcaches.overallAvgMshrMissLatency::cache_hierarchy.l1dcaches.prefetcher 63961.336719                       # average overall mshr miss latency ((Tick/Count))
board.cache_hierarchy.l1dcaches.overallAvgMshrMissLatency::processor.cores.core.data 51320.322854                       # average overall mshr miss latency ((Tick/Count))
board.cache_hierarchy.l1dcaches.overallAvgMshrMissLatency::total 51430.006560                       # average overall mshr miss latency ((Tick/Count))
board.cache_hierarchy.l1dcaches.replacements       520584                       # number of replacements (Count)
board.cache_hierarchy.l1dcaches.CleanInvalidReq.missLatency::processor.cores.core.data   1831190310                       # number of CleanInvalidReq miss ticks (Tick)
board.cache_hierarchy.l1dcaches.CleanInvalidReq.missLatency::total   1831190310                       # number of CleanInvalidReq miss ticks (Tick)
board.cache_hierarchy.l1dcaches.CleanInvalidReq.avgMissLatency::processor.cores.core.data          inf                       # average CleanInvalidReq miss latency ((Tick/Count))
board.cache_hierarchy.l1dcaches.CleanInvalidReq.avgMissLatency::total          inf                       # average CleanInvalidReq miss latency ((Tick/Count))
board.cache_hierarchy.l1dcaches.CleanInvalidReq.mshrMisses::processor.cores.core.data      5402800                       # number of CleanInvalidReq MSHR misses (Count)
board.cache_hierarchy.l1dcaches.CleanInvalidReq.mshrMisses::total      5402800                       # number of CleanInvalidReq MSHR misses (Count)
board.cache_hierarchy.l1dcaches.CleanInvalidReq.mshrMissLatency::processor.cores.core.data  39580912800                       # number of CleanInvalidReq MSHR miss ticks (Tick)
board.cache_hierarchy.l1dcaches.CleanInvalidReq.mshrMissLatency::total  39580912800                       # number of CleanInvalidReq MSHR miss ticks (Tick)
board.cache_hierarchy.l1dcaches.CleanInvalidReq.mshrMissRate::processor.cores.core.data          inf                       # mshr miss rate for CleanInvalidReq accesses (Ratio)
board.cache_hierarchy.l1dcaches.CleanInvalidReq.mshrMissRate::total          inf                       # mshr miss rate for CleanInvalidReq accesses (Ratio)
board.cache_hierarchy.l1dcaches.CleanInvalidReq.avgMshrMissLatency::processor.cores.core.data         7326                       # average CleanInvalidReq mshr miss latency ((Tick/Count))
board.cache_hierarchy.l1dcaches.CleanInvalidReq.avgMshrMissLatency::total         7326                       # average CleanInvalidReq mshr miss latency ((Tick/Count))
board.cache_hierarchy.l1dcaches.HardPFReq.mshrMisses::cache_hierarchy.l1dcaches.prefetcher         6596                       # number of HardPFReq MSHR misses (Count)
board.cache_hierarchy.l1dcaches.HardPFReq.mshrMisses::total         6596                       # number of HardPFReq MSHR misses (Count)
board.cache_hierarchy.l1dcaches.HardPFReq.mshrMissLatency::cache_hierarchy.l1dcaches.prefetcher    421888977                       # number of HardPFReq MSHR miss ticks (Tick)
board.cache_hierarchy.l1dcaches.HardPFReq.mshrMissLatency::total    421888977                       # number of HardPFReq MSHR miss ticks (Tick)
board.cache_hierarchy.l1dcaches.HardPFReq.mshrMissRate::cache_hierarchy.l1dcaches.prefetcher          inf                       # mshr miss rate for HardPFReq accesses (Ratio)
board.cache_hierarchy.l1dcaches.HardPFReq.mshrMissRate::total          inf                       # mshr miss rate for HardPFReq accesses (Ratio)
board.cache_hierarchy.l1dcaches.HardPFReq.avgMshrMissLatency::cache_hierarchy.l1dcaches.prefetcher 63961.336719                       # average HardPFReq mshr miss latency ((Tick/Count))
board.cache_hierarchy.l1dcaches.HardPFReq.avgMshrMissLatency::total 63961.336719                       # average HardPFReq mshr miss latency ((Tick/Count))
board.cache_hierarchy.l1dcaches.ReadReq.hits::processor.cores.core.data     41878396                       # number of ReadReq hits (Count)
board.cache_hierarchy.l1dcaches.ReadReq.hits::total     41878396                       # number of ReadReq hits (Count)
board.cache_hierarchy.l1dcaches.ReadReq.misses::processor.cores.core.data       762910                       # number of ReadReq misses (Count)
board.cache_hierarchy.l1dcaches.ReadReq.misses::total       762910                       # number of ReadReq misses (Count)
board.cache_hierarchy.l1dcaches.ReadReq.missLatency::processor.cores.core.data  39124243260                       # number of ReadReq miss ticks (Tick)
board.cache_hierarchy.l1dcaches.ReadReq.missLatency::total  39124243260                       # number of ReadReq miss ticks (Tick)
board.cache_hierarchy.l1dcaches.ReadReq.accesses::processor.cores.core.data     42641306                       # number of ReadReq accesses(hits+misses) (Count)
board.cache_hierarchy.l1dcaches.ReadReq.accesses::total     42641306                       # number of ReadReq accesses(hits+misses) (Count)
board.cache_hierarchy.l1dcaches.ReadReq.missRate::processor.cores.core.data     0.017891                       # miss rate for ReadReq accesses (Ratio)
board.cache_hierarchy.l1dcaches.ReadReq.missRate::total     0.017891                       # miss rate for ReadReq accesses (Ratio)
board.cache_hierarchy.l1dcaches.ReadReq.avgMissLatency::processor.cores.core.data 51282.907892                       # average ReadReq miss latency ((Tick/Count))
board.cache_hierarchy.l1dcaches.ReadReq.avgMissLatency::total 51282.907892                       # average ReadReq miss latency ((Tick/Count))
board.cache_hierarchy.l1dcaches.ReadReq.mshrHits::processor.cores.core.data        10739                       # number of ReadReq MSHR hits (Count)
board.cache_hierarchy.l1dcaches.ReadReq.mshrHits::total        10739                       # number of ReadReq MSHR hits (Count)
board.cache_hierarchy.l1dcaches.ReadReq.mshrMisses::processor.cores.core.data       752171                       # number of ReadReq MSHR misses (Count)
board.cache_hierarchy.l1dcaches.ReadReq.mshrMisses::total       752171                       # number of ReadReq MSHR misses (Count)
board.cache_hierarchy.l1dcaches.ReadReq.mshrMissLatency::processor.cores.core.data  38619328347                       # number of ReadReq MSHR miss ticks (Tick)
board.cache_hierarchy.l1dcaches.ReadReq.mshrMissLatency::total  38619328347                       # number of ReadReq MSHR miss ticks (Tick)
board.cache_hierarchy.l1dcaches.ReadReq.mshrMissRate::processor.cores.core.data     0.017639                       # mshr miss rate for ReadReq accesses (Ratio)
board.cache_hierarchy.l1dcaches.ReadReq.mshrMissRate::total     0.017639                       # mshr miss rate for ReadReq accesses (Ratio)
board.cache_hierarchy.l1dcaches.ReadReq.avgMshrMissLatency::processor.cores.core.data 51343.814567                       # average ReadReq mshr miss latency ((Tick/Count))
board.cache_hierarchy.l1dcaches.ReadReq.avgMshrMissLatency::total 51343.814567                       # average ReadReq mshr miss latency ((Tick/Count))
board.cache_hierarchy.l1dcaches.WriteReq.hits::processor.cores.core.data     25672854                       # number of WriteReq hits (Count)
board.cache_hierarchy.l1dcaches.WriteReq.hits::total     25672854                       # number of WriteReq hits (Count)
board.cache_hierarchy.l1dcaches.WriteReq.misses::processor.cores.core.data         1470                       # number of WriteReq misses (Count)
board.cache_hierarchy.l1dcaches.WriteReq.misses::total         1470                       # number of WriteReq misses (Count)
board.cache_hierarchy.l1dcaches.WriteReq.missLatency::processor.cores.core.data     56878731                       # number of WriteReq miss ticks (Tick)
board.cache_hierarchy.l1dcaches.WriteReq.missLatency::total     56878731                       # number of WriteReq miss ticks (Tick)
board.cache_hierarchy.l1dcaches.WriteReq.accesses::processor.cores.core.data     25674324                       # number of WriteReq accesses(hits+misses) (Count)
board.cache_hierarchy.l1dcaches.WriteReq.accesses::total     25674324                       # number of WriteReq accesses(hits+misses) (Count)
board.cache_hierarchy.l1dcaches.WriteReq.missRate::processor.cores.core.data     0.000057                       # miss rate for WriteReq accesses (Ratio)
board.cache_hierarchy.l1dcaches.WriteReq.missRate::total     0.000057                       # miss rate for WriteReq accesses (Ratio)
board.cache_hierarchy.l1dcaches.WriteReq.avgMissLatency::processor.cores.core.data 38693.014286                       # average WriteReq miss latency ((Tick/Count))
board.cache_hierarchy.l1dcaches.WriteReq.avgMissLatency::total 38693.014286                       # average WriteReq miss latency ((Tick/Count))
board.cache_hierarchy.l1dcaches.WriteReq.mshrHits::processor.cores.core.data           50                       # number of WriteReq MSHR hits (Count)
board.cache_hierarchy.l1dcaches.WriteReq.mshrHits::total           50                       # number of WriteReq MSHR hits (Count)
board.cache_hierarchy.l1dcaches.WriteReq.mshrMisses::processor.cores.core.data         1420                       # number of WriteReq MSHR misses (Count)
board.cache_hierarchy.l1dcaches.WriteReq.mshrMisses::total         1420                       # number of WriteReq MSHR misses (Count)
board.cache_hierarchy.l1dcaches.WriteReq.mshrMissLatency::processor.cores.core.data     55205073                       # number of WriteReq MSHR miss ticks (Tick)
board.cache_hierarchy.l1dcaches.WriteReq.mshrMissLatency::total     55205073                       # number of WriteReq MSHR miss ticks (Tick)
board.cache_hierarchy.l1dcaches.WriteReq.mshrMissRate::processor.cores.core.data     0.000055                       # mshr miss rate for WriteReq accesses (Ratio)
board.cache_hierarchy.l1dcaches.WriteReq.mshrMissRate::total     0.000055                       # mshr miss rate for WriteReq accesses (Ratio)
board.cache_hierarchy.l1dcaches.WriteReq.avgMshrMissLatency::processor.cores.core.data 38876.811972                       # average WriteReq mshr miss latency ((Tick/Count))
board.cache_hierarchy.l1dcaches.WriteReq.avgMshrMissLatency::total 38876.811972                       # average WriteReq mshr miss latency ((Tick/Count))
board.cache_hierarchy.l1dcaches.power_state.pwrStateResidencyTicks::UNDEFINED 178666945209                       # Cumulative time (in ticks) in various power states (Tick)
board.cache_hierarchy.l1dcaches.prefetcher.demandMshrMisses       753591                       # demands not covered by prefetchs (Count)
board.cache_hierarchy.l1dcaches.prefetcher.pfIssued        13485                       # number of hwpf issued (Count)
board.cache_hierarchy.l1dcaches.prefetcher.pfUnused         3285                       # number of HardPF blocks evicted w/o reference (Count)
board.cache_hierarchy.l1dcaches.prefetcher.pfUseful         2912                       # number of useful prefetch (Count)
board.cache_hierarchy.l1dcaches.prefetcher.pfUsefulButMiss            0                       # number of hit on prefetch but cache block is not in an usable state (Count)
board.cache_hierarchy.l1dcaches.prefetcher.accuracy     0.215944                       # accuracy of the prefetcher (Count)
board.cache_hierarchy.l1dcaches.prefetcher.coverage     0.003849                       # coverage brought by this prefetcher (Count)
board.cache_hierarchy.l1dcaches.prefetcher.pfHitInCache         2609                       # number of prefetches hitting in cache (Count)
board.cache_hierarchy.l1dcaches.prefetcher.pfHitInMSHR         4280                       # number of prefetches hitting in a MSHR (Count)
board.cache_hierarchy.l1dcaches.prefetcher.pfHitInWB            0                       # number of prefetches hit in the Write Buffer (Count)
board.cache_hierarchy.l1dcaches.prefetcher.pfLate         6889                       # number of late prefetches (hitting in cache, MSHR or WB) (Count)
board.cache_hierarchy.l1dcaches.prefetcher.pfIdentified        19099                       # number of prefetch candidates identified (Count)
board.cache_hierarchy.l1dcaches.prefetcher.pfBufferHit         4286                       # number of redundant prefetches already in prefetch queue (Count)
board.cache_hierarchy.l1dcaches.prefetcher.pfInCache            0                       # number of redundant prefetches already in cache/mshr dropped (Count)
board.cache_hierarchy.l1dcaches.prefetcher.pfRemovedDemand           83                       # number of prefetches dropped due to a demand for the same address (Count)
board.cache_hierarchy.l1dcaches.prefetcher.pfRemovedFull            0                       # number of prefetches dropped due to prefetch queue size (Count)
board.cache_hierarchy.l1dcaches.prefetcher.pfSpanPage         3849                       # number of prefetches that crossed the page (Count)
board.cache_hierarchy.l1dcaches.prefetcher.pfUsefulSpanPage            0                       # number of prefetches that is useful and crossed the page (Count)
board.cache_hierarchy.l1dcaches.prefetcher.power_state.pwrStateResidencyTicks::UNDEFINED 178666945209                       # Cumulative time (in ticks) in various power states (Tick)
board.cache_hierarchy.l1dcaches.tags.tagsInUse   480.354983                       # Average ticks per tags in use ((Tick/Count))
board.cache_hierarchy.l1dcaches.tags.totalRefs     68550527                       # Total number of references to valid blocks. (Count)
board.cache_hierarchy.l1dcaches.tags.sampledRefs       760186                       # Sample count of references to valid blocks. (Count)
board.cache_hierarchy.l1dcaches.tags.avgRefs    90.175992                       # Average number of references to valid blocks. ((Count/Count))
board.cache_hierarchy.l1dcaches.tags.warmupTick       134865                       # The tick when the warmup percentage was hit. (Tick)
board.cache_hierarchy.l1dcaches.tags.occupancies::cache_hierarchy.l1dcaches.prefetcher   205.208501                       # Average occupied blocks per tick, per requestor ((Count/Tick))
board.cache_hierarchy.l1dcaches.tags.occupancies::processor.cores.core.data   275.146481                       # Average occupied blocks per tick, per requestor ((Count/Tick))
board.cache_hierarchy.l1dcaches.tags.avgOccs::cache_hierarchy.l1dcaches.prefetcher     0.400798                       # Average percentage of cache occupancy ((Ratio/Tick))
board.cache_hierarchy.l1dcaches.tags.avgOccs::processor.cores.core.data     0.537395                       # Average percentage of cache occupancy ((Ratio/Tick))
board.cache_hierarchy.l1dcaches.tags.avgOccs::total     0.938193                       # Average percentage of cache occupancy ((Ratio/Tick))
board.cache_hierarchy.l1dcaches.tags.occupanciesTaskId::1022          187                       # Occupied blocks per task id (Count)
board.cache_hierarchy.l1dcaches.tags.occupanciesTaskId::1024          325                       # Occupied blocks per task id (Count)
board.cache_hierarchy.l1dcaches.tags.ageTaskId_1022::4          187                       # Occupied blocks per task id, per block age (Count)
board.cache_hierarchy.l1dcaches.tags.ageTaskId_1024::0           98                       # Occupied blocks per task id, per block age (Count)
board.cache_hierarchy.l1dcaches.tags.ageTaskId_1024::1            2                       # Occupied blocks per task id, per block age (Count)
board.cache_hierarchy.l1dcaches.tags.ageTaskId_1024::4          225                       # Occupied blocks per task id, per block age (Count)
board.cache_hierarchy.l1dcaches.tags.ratioOccsTaskId::1022     0.365234                       # Ratio of occupied blocks and all blocks, per task id (Ratio)
board.cache_hierarchy.l1dcaches.tags.ratioOccsTaskId::1024     0.634766                       # Ratio of occupied blocks and all blocks, per task id (Ratio)
board.cache_hierarchy.l1dcaches.tags.tagAccesses    590507626                       # Number of tag accesses (Count)
board.cache_hierarchy.l1dcaches.tags.dataAccesses    590507626                       # Number of data accesses (Count)
board.cache_hierarchy.l1dcaches.tags.power_state.pwrStateResidencyTicks::UNDEFINED 178666945209                       # Cumulative time (in ticks) in various power states (Tick)
board.cache_hierarchy.l1icaches.demandHits::processor.cores.core.inst     94585979                       # number of demand (read+write) hits (Count)
board.cache_hierarchy.l1icaches.demandHits::total     94585979                       # number of demand (read+write) hits (Count)
board.cache_hierarchy.l1icaches.overallHits::processor.cores.core.inst     94585979                       # number of overall hits (Count)
board.cache_hierarchy.l1icaches.overallHits::total     94585979                       # number of overall hits (Count)
board.cache_hierarchy.l1icaches.demandMisses::processor.cores.core.inst         1751                       # number of demand (read+write) misses (Count)
board.cache_hierarchy.l1icaches.demandMisses::total         1751                       # number of demand (read+write) misses (Count)
board.cache_hierarchy.l1icaches.overallMisses::processor.cores.core.inst         1751                       # number of overall misses (Count)
board.cache_hierarchy.l1icaches.overallMisses::total         1751                       # number of overall misses (Count)
board.cache_hierarchy.l1icaches.demandMissLatency::processor.cores.core.inst     90103806                       # number of demand (read+write) miss ticks (Tick)
board.cache_hierarchy.l1icaches.demandMissLatency::total     90103806                       # number of demand (read+write) miss ticks (Tick)
board.cache_hierarchy.l1icaches.overallMissLatency::processor.cores.core.inst     90103806                       # number of overall miss ticks (Tick)
board.cache_hierarchy.l1icaches.overallMissLatency::total     90103806                       # number of overall miss ticks (Tick)
board.cache_hierarchy.l1icaches.demandAccesses::processor.cores.core.inst     94587730                       # number of demand (read+write) accesses (Count)
board.cache_hierarchy.l1icaches.demandAccesses::total     94587730                       # number of demand (read+write) accesses (Count)
board.cache_hierarchy.l1icaches.overallAccesses::processor.cores.core.inst     94587730                       # number of overall (read+write) accesses (Count)
board.cache_hierarchy.l1icaches.overallAccesses::total     94587730                       # number of overall (read+write) accesses (Count)
board.cache_hierarchy.l1icaches.demandMissRate::processor.cores.core.inst     0.000019                       # miss rate for demand accesses (Ratio)
board.cache_hierarchy.l1icaches.demandMissRate::total     0.000019                       # miss rate for demand accesses (Ratio)
board.cache_hierarchy.l1icaches.overallMissRate::processor.cores.core.inst     0.000019                       # miss rate for overall accesses (Ratio)
board.cache_hierarchy.l1icaches.overallMissRate::total     0.000019                       # miss rate for overall accesses (Ratio)
board.cache_hierarchy.l1icaches.demandAvgMissLatency::processor.cores.core.inst 51458.484295                       # average overall miss latency in ticks ((Tick/Count))
board.cache_hierarchy.l1icaches.demandAvgMissLatency::total 51458.484295                       # average overall miss latency in ticks ((Tick/Count))
board.cache_hierarchy.l1icaches.overallAvgMissLatency::processor.cores.core.inst 51458.484295                       # average overall miss latency ((Tick/Count))
board.cache_hierarchy.l1icaches.overallAvgMissLatency::total 51458.484295                       # average overall miss latency ((Tick/Count))
board.cache_hierarchy.l1icaches.blockedCycles::no_mshrs            0                       # number of cycles access was blocked (Cycle)
board.cache_hierarchy.l1icaches.blockedCycles::no_targets            0                       # number of cycles access was blocked (Cycle)
board.cache_hierarchy.l1icaches.blockedCauses::no_mshrs            0                       # number of times access was blocked (Count)
board.cache_hierarchy.l1icaches.blockedCauses::no_targets            0                       # number of times access was blocked (Count)
board.cache_hierarchy.l1icaches.avgBlocked::no_mshrs          nan                       # average number of cycles each access was blocked ((Cycle/Count))
board.cache_hierarchy.l1icaches.avgBlocked::no_targets          nan                       # average number of cycles each access was blocked ((Cycle/Count))
board.cache_hierarchy.l1icaches.writebacks::writebacks          813                       # number of writebacks (Count)
board.cache_hierarchy.l1icaches.writebacks::total          813                       # number of writebacks (Count)
board.cache_hierarchy.l1icaches.demandMshrHits::processor.cores.core.inst          424                       # number of demand (read+write) MSHR hits (Count)
board.cache_hierarchy.l1icaches.demandMshrHits::total          424                       # number of demand (read+write) MSHR hits (Count)
board.cache_hierarchy.l1icaches.overallMshrHits::processor.cores.core.inst          424                       # number of overall MSHR hits (Count)
board.cache_hierarchy.l1icaches.overallMshrHits::total          424                       # number of overall MSHR hits (Count)
board.cache_hierarchy.l1icaches.demandMshrMisses::processor.cores.core.inst         1327                       # number of demand (read+write) MSHR misses (Count)
board.cache_hierarchy.l1icaches.demandMshrMisses::total         1327                       # number of demand (read+write) MSHR misses (Count)
board.cache_hierarchy.l1icaches.overallMshrMisses::processor.cores.core.inst         1327                       # number of overall MSHR misses (Count)
board.cache_hierarchy.l1icaches.overallMshrMisses::total         1327                       # number of overall MSHR misses (Count)
board.cache_hierarchy.l1icaches.demandMshrMissLatency::processor.cores.core.inst     70903026                       # number of demand (read+write) MSHR miss ticks (Tick)
board.cache_hierarchy.l1icaches.demandMshrMissLatency::total     70903026                       # number of demand (read+write) MSHR miss ticks (Tick)
board.cache_hierarchy.l1icaches.overallMshrMissLatency::processor.cores.core.inst     70903026                       # number of overall MSHR miss ticks (Tick)
board.cache_hierarchy.l1icaches.overallMshrMissLatency::total     70903026                       # number of overall MSHR miss ticks (Tick)
board.cache_hierarchy.l1icaches.demandMshrMissRate::processor.cores.core.inst     0.000014                       # mshr miss ratio for demand accesses (Ratio)
board.cache_hierarchy.l1icaches.demandMshrMissRate::total     0.000014                       # mshr miss ratio for demand accesses (Ratio)
board.cache_hierarchy.l1icaches.overallMshrMissRate::processor.cores.core.inst     0.000014                       # mshr miss ratio for overall accesses (Ratio)
board.cache_hierarchy.l1icaches.overallMshrMissRate::total     0.000014                       # mshr miss ratio for overall accesses (Ratio)
board.cache_hierarchy.l1icaches.demandAvgMshrMissLatency::processor.cores.core.inst 53431.067069                       # average overall mshr miss latency ((Tick/Count))
board.cache_hierarchy.l1icaches.demandAvgMshrMissLatency::total 53431.067069                       # average overall mshr miss latency ((Tick/Count))
board.cache_hierarchy.l1icaches.overallAvgMshrMissLatency::processor.cores.core.inst 53431.067069                       # average overall mshr miss latency ((Tick/Count))
board.cache_hierarchy.l1icaches.overallAvgMshrMissLatency::total 53431.067069                       # average overall mshr miss latency ((Tick/Count))
board.cache_hierarchy.l1icaches.replacements          813                       # number of replacements (Count)
board.cache_hierarchy.l1icaches.ReadReq.hits::processor.cores.core.inst     94585979                       # number of ReadReq hits (Count)
board.cache_hierarchy.l1icaches.ReadReq.hits::total     94585979                       # number of ReadReq hits (Count)
board.cache_hierarchy.l1icaches.ReadReq.misses::processor.cores.core.inst         1751                       # number of ReadReq misses (Count)
board.cache_hierarchy.l1icaches.ReadReq.misses::total         1751                       # number of ReadReq misses (Count)
board.cache_hierarchy.l1icaches.ReadReq.missLatency::processor.cores.core.inst     90103806                       # number of ReadReq miss ticks (Tick)
board.cache_hierarchy.l1icaches.ReadReq.missLatency::total     90103806                       # number of ReadReq miss ticks (Tick)
board.cache_hierarchy.l1icaches.ReadReq.accesses::processor.cores.core.inst     94587730                       # number of ReadReq accesses(hits+misses) (Count)
board.cache_hierarchy.l1icaches.ReadReq.accesses::total     94587730                       # number of ReadReq accesses(hits+misses) (Count)
board.cache_hierarchy.l1icaches.ReadReq.missRate::processor.cores.core.inst     0.000019                       # miss rate for ReadReq accesses (Ratio)
board.cache_hierarchy.l1icaches.ReadReq.missRate::total     0.000019                       # miss rate for ReadReq accesses (Ratio)
board.cache_hierarchy.l1icaches.ReadReq.avgMissLatency::processor.cores.core.inst 51458.484295                       # average ReadReq miss latency ((Tick/Count))
board.cache_hierarchy.l1icaches.ReadReq.avgMissLatency::total 51458.484295                       # average ReadReq miss latency ((Tick/Count))
board.cache_hierarchy.l1icaches.ReadReq.mshrHits::processor.cores.core.inst          424                       # number of ReadReq MSHR hits (Count)
board.cache_hierarchy.l1icaches.ReadReq.mshrHits::total          424                       # number of ReadReq MSHR hits (Count)
board.cache_hierarchy.l1icaches.ReadReq.mshrMisses::processor.cores.core.inst         1327                       # number of ReadReq MSHR misses (Count)
board.cache_hierarchy.l1icaches.ReadReq.mshrMisses::total         1327                       # number of ReadReq MSHR misses (Count)
board.cache_hierarchy.l1icaches.ReadReq.mshrMissLatency::processor.cores.core.inst     70903026                       # number of ReadReq MSHR miss ticks (Tick)
board.cache_hierarchy.l1icaches.ReadReq.mshrMissLatency::total     70903026                       # number of ReadReq MSHR miss ticks (Tick)
board.cache_hierarchy.l1icaches.ReadReq.mshrMissRate::processor.cores.core.inst     0.000014                       # mshr miss rate for ReadReq accesses (Ratio)
board.cache_hierarchy.l1icaches.ReadReq.mshrMissRate::total     0.000014                       # mshr miss rate for ReadReq accesses (Ratio)
board.cache_hierarchy.l1icaches.ReadReq.avgMshrMissLatency::processor.cores.core.inst 53431.067069                       # average ReadReq mshr miss latency ((Tick/Count))
board.cache_hierarchy.l1icaches.ReadReq.avgMshrMissLatency::total 53431.067069                       # average ReadReq mshr miss latency ((Tick/Count))
board.cache_hierarchy.l1icaches.power_state.pwrStateResidencyTicks::UNDEFINED 178666945209                       # Cumulative time (in ticks) in various power states (Tick)
board.cache_hierarchy.l1icaches.prefetcher.demandMshrMisses         1327                       # demands not covered by prefetchs (Count)
board.cache_hierarchy.l1icaches.prefetcher.pfIssued            0                       # number of hwpf issued (Count)
board.cache_hierarchy.l1icaches.prefetcher.pfUseful            0                       # number of useful prefetch (Count)
board.cache_hierarchy.l1icaches.prefetcher.pfUsefulButMiss            0                       # number of hit on prefetch but cache block is not in an usable state (Count)
board.cache_hierarchy.l1icaches.prefetcher.accuracy          nan                       # accuracy of the prefetcher (Count)
board.cache_hierarchy.l1icaches.prefetcher.coverage            0                       # coverage brought by this prefetcher (Count)
board.cache_hierarchy.l1icaches.prefetcher.pfHitInCache            0                       # number of prefetches hitting in cache (Count)
board.cache_hierarchy.l1icaches.prefetcher.pfHitInMSHR            0                       # number of prefetches hitting in a MSHR (Count)
board.cache_hierarchy.l1icaches.prefetcher.pfHitInWB            0                       # number of prefetches hit in the Write Buffer (Count)
board.cache_hierarchy.l1icaches.prefetcher.pfLate            0                       # number of late prefetches (hitting in cache, MSHR or WB) (Count)
board.cache_hierarchy.l1icaches.prefetcher.pfIdentified            0                       # number of prefetch candidates identified (Count)
board.cache_hierarchy.l1icaches.prefetcher.pfBufferHit            0                       # number of redundant prefetches already in prefetch queue (Count)
board.cache_hierarchy.l1icaches.prefetcher.pfInCache            0                       # number of redundant prefetches already in cache/mshr dropped (Count)
board.cache_hierarchy.l1icaches.prefetcher.pfRemovedDemand            0                       # number of prefetches dropped due to a demand for the same address (Count)
board.cache_hierarchy.l1icaches.prefetcher.pfRemovedFull            0                       # number of prefetches dropped due to prefetch queue size (Count)
board.cache_hierarchy.l1icaches.prefetcher.pfSpanPage            0                       # number of prefetches that crossed the page (Count)
board.cache_hierarchy.l1icaches.prefetcher.pfUsefulSpanPage            0                       # number of prefetches that is useful and crossed the page (Count)
board.cache_hierarchy.l1icaches.prefetcher.power_state.pwrStateResidencyTicks::UNDEFINED 178666945209                       # Cumulative time (in ticks) in various power states (Tick)
board.cache_hierarchy.l1icaches.tags.tagsInUse   511.959682                       # Average ticks per tags in use ((Tick/Count))
board.cache_hierarchy.l1icaches.tags.totalRefs     94587305                       # Total number of references to valid blocks. (Count)
board.cache_hierarchy.l1icaches.tags.sampledRefs         1326                       # Sample count of references to valid blocks. (Count)
board.cache_hierarchy.l1icaches.tags.avgRefs 71332.809201                       # Average number of references to valid blocks. ((Count/Count))
board.cache_hierarchy.l1icaches.tags.warmupTick        70263                       # The tick when the warmup percentage was hit. (Tick)
board.cache_hierarchy.l1icaches.tags.occupancies::processor.cores.core.inst   511.959682                       # Average occupied blocks per tick, per requestor ((Count/Tick))
board.cache_hierarchy.l1icaches.tags.avgOccs::processor.cores.core.inst     0.999921                       # Average percentage of cache occupancy ((Ratio/Tick))
board.cache_hierarchy.l1icaches.tags.avgOccs::total     0.999921                       # Average percentage of cache occupancy ((Ratio/Tick))
board.cache_hierarchy.l1icaches.tags.occupanciesTaskId::1024          512                       # Occupied blocks per task id (Count)
board.cache_hierarchy.l1icaches.tags.ageTaskId_1024::0           98                       # Occupied blocks per task id, per block age (Count)
board.cache_hierarchy.l1icaches.tags.ageTaskId_1024::4          414                       # Occupied blocks per task id, per block age (Count)
board.cache_hierarchy.l1icaches.tags.ratioOccsTaskId::1024            1                       # Ratio of occupied blocks and all blocks, per task id (Ratio)
board.cache_hierarchy.l1icaches.tags.tagAccesses    756703166                       # Number of tag accesses (Count)
board.cache_hierarchy.l1icaches.tags.dataAccesses    756703166                       # Number of data accesses (Count)
board.cache_hierarchy.l1icaches.tags.power_state.pwrStateResidencyTicks::UNDEFINED 178666945209                       # Cumulative time (in ticks) in various power states (Tick)
board.cache_hierarchy.l2buses.transDist::ReadResp       760093                       # Transaction distribution (Count)
board.cache_hierarchy.l2buses.transDist::WritebackDirty         9041                       # Transaction distribution (Count)
board.cache_hierarchy.l2buses.transDist::WritebackClean          813                       # Transaction distribution (Count)
board.cache_hierarchy.l2buses.transDist::WriteClean         1896                       # Transaction distribution (Count)
board.cache_hierarchy.l2buses.transDist::CleanEvict       513871                       # Transaction distribution (Count)
board.cache_hierarchy.l2buses.transDist::HardPFReq        10107                       # Transaction distribution (Count)
board.cache_hierarchy.l2buses.transDist::UpgradeReq            1                       # Transaction distribution (Count)
board.cache_hierarchy.l2buses.transDist::UpgradeResp            1                       # Transaction distribution (Count)
board.cache_hierarchy.l2buses.transDist::ReadExReq         1419                       # Transaction distribution (Count)
board.cache_hierarchy.l2buses.transDist::ReadExResp         1419                       # Transaction distribution (Count)
board.cache_hierarchy.l2buses.transDist::ReadSharedReq       760094                       # Transaction distribution (Count)
board.cache_hierarchy.l2buses.transDist::CleanInvalidReq      5402800                       # Transaction distribution (Count)
board.cache_hierarchy.l2buses.transDist::CleanInvalidResp      5402800                       # Transaction distribution (Count)
board.cache_hierarchy.l2buses.pktCount_board.cache_hierarchy.l1icaches.mem_side_port::board.cache_hierarchy.l2caches.cpu_side_port         3465                       # Packet count per connected requestor and responder (Count)
board.cache_hierarchy.l2buses.pktCount_board.cache_hierarchy.l1dcaches.mem_side_port::board.cache_hierarchy.l2caches.cpu_side_port     12846558                       # Packet count per connected requestor and responder (Count)
board.cache_hierarchy.l2buses.pktCount::total     12850023                       # Packet count per connected requestor and responder (Count)
board.cache_hierarchy.l2buses.pktSize_board.cache_hierarchy.l1icaches.mem_side_port::board.cache_hierarchy.l2caches.cpu_side_port       136832                       # Cumulative packet size per connected requestor and responder (Byte)
board.cache_hierarchy.l2buses.pktSize_board.cache_hierarchy.l1dcaches.mem_side_port::board.cache_hierarchy.l2caches.cpu_side_port     49195072                       # Cumulative packet size per connected requestor and responder (Byte)
board.cache_hierarchy.l2buses.pktSize::total     49331904                       # Cumulative packet size per connected requestor and responder (Byte)
board.cache_hierarchy.l2buses.snoops            14332                       # Total snoops (Count)
board.cache_hierarchy.l2buses.snoopTraffic       156864                       # Total snoop traffic (Byte)
board.cache_hierarchy.l2buses.snoopFanout::samples      6178645                       # Request fanout histogram (Count)
board.cache_hierarchy.l2buses.snoopFanout::mean     0.000439                       # Request fanout histogram (Count)
board.cache_hierarchy.l2buses.snoopFanout::stdev     0.020950                       # Request fanout histogram (Count)
board.cache_hierarchy.l2buses.snoopFanout::underflows            0      0.00%      0.00% # Request fanout histogram (Count)
board.cache_hierarchy.l2buses.snoopFanout::0      6175932     99.96%     99.96% # Request fanout histogram (Count)
board.cache_hierarchy.l2buses.snoopFanout::1         2713      0.04%    100.00% # Request fanout histogram (Count)
board.cache_hierarchy.l2buses.snoopFanout::2            0      0.00%    100.00% # Request fanout histogram (Count)
board.cache_hierarchy.l2buses.snoopFanout::3            0      0.00%    100.00% # Request fanout histogram (Count)
board.cache_hierarchy.l2buses.snoopFanout::4            0      0.00%    100.00% # Request fanout histogram (Count)
board.cache_hierarchy.l2buses.snoopFanout::overflows            0      0.00%    100.00% # Request fanout histogram (Count)
board.cache_hierarchy.l2buses.snoopFanout::min_value            0                       # Request fanout histogram (Count)
board.cache_hierarchy.l2buses.snoopFanout::max_value            1                       # Request fanout histogram (Count)
board.cache_hierarchy.l2buses.snoopFanout::total      6178645                       # Request fanout histogram (Count)
board.cache_hierarchy.l2buses.power_state.pwrStateResidencyTicks::UNDEFINED 178666945209                       # Cumulative time (in ticks) in various power states (Tick)
board.cache_hierarchy.l2buses.reqLayer0.occupancy   2232640029                       # Layer occupancy (ticks) (Tick)
board.cache_hierarchy.l2buses.reqLayer0.utilization          0.0                       # Layer utilization (Ratio)
board.cache_hierarchy.l2buses.respLayer0.occupancy      1325670                       # Layer occupancy (ticks) (Tick)
board.cache_hierarchy.l2buses.respLayer0.utilization          0.0                       # Layer utilization (Ratio)
board.cache_hierarchy.l2buses.respLayer1.occupancy   2558558547                       # Layer occupancy (ticks) (Tick)
board.cache_hierarchy.l2buses.respLayer1.utilization          0.0                       # Layer utilization (Ratio)
board.cache_hierarchy.l2buses.snoop_filter.totRequests      6685712                       # Total number of requests made to the snoop filter. (Count)
board.cache_hierarchy.l2buses.snoop_filter.hitSingleRequests       760491                       # Number of requests hitting in the snoop filter with a single holder of the requested data. (Count)
board.cache_hierarchy.l2buses.snoop_filter.hitMultiRequests            6                       # Number of requests hitting in the snoop filter with multiple (>1) holders of the requested data. (Count)
board.cache_hierarchy.l2buses.snoop_filter.totSnoops         2704                       # Total number of snoops made to the snoop filter. (Count)
board.cache_hierarchy.l2buses.snoop_filter.hitSingleSnoops         2704                       # Number of snoops hitting in the snoop filter with a single holder of the requested data. (Count)
board.cache_hierarchy.l2buses.snoop_filter.hitMultiSnoops            0                       # Number of snoops hitting in the snoop filter with multiple (>1) holders of the requested data. (Count)
board.cache_hierarchy.l2caches.demandHits::cache_hierarchy.l1dcaches.prefetcher          653                       # number of demand (read+write) hits (Count)
board.cache_hierarchy.l2caches.demandHits::processor.cores.core.inst           44                       # number of demand (read+write) hits (Count)
board.cache_hierarchy.l2caches.demandHits::processor.cores.core.data        13925                       # number of demand (read+write) hits (Count)
board.cache_hierarchy.l2caches.demandHits::total        14622                       # number of demand (read+write) hits (Count)
board.cache_hierarchy.l2caches.overallHits::cache_hierarchy.l1dcaches.prefetcher          653                       # number of overall hits (Count)
board.cache_hierarchy.l2caches.overallHits::processor.cores.core.inst           44                       # number of overall hits (Count)
board.cache_hierarchy.l2caches.overallHits::processor.cores.core.data        13925                       # number of overall hits (Count)
board.cache_hierarchy.l2caches.overallHits::total        14622                       # number of overall hits (Count)
board.cache_hierarchy.l2caches.demandMisses::cache_hierarchy.l1dcaches.prefetcher         5943                       # number of demand (read+write) misses (Count)
board.cache_hierarchy.l2caches.demandMisses::processor.cores.core.inst         1282                       # number of demand (read+write) misses (Count)
board.cache_hierarchy.l2caches.demandMisses::processor.cores.core.data       739665                       # number of demand (read+write) misses (Count)
board.cache_hierarchy.l2caches.demandMisses::total       746890                       # number of demand (read+write) misses (Count)
board.cache_hierarchy.l2caches.overallMisses::cache_hierarchy.l1dcaches.prefetcher         5943                       # number of overall misses (Count)
board.cache_hierarchy.l2caches.overallMisses::processor.cores.core.inst         1282                       # number of overall misses (Count)
board.cache_hierarchy.l2caches.overallMisses::processor.cores.core.data       739665                       # number of overall misses (Count)
board.cache_hierarchy.l2caches.overallMisses::total       746890                       # number of overall misses (Count)
board.cache_hierarchy.l2caches.demandMissLatency::cache_hierarchy.l1dcaches.prefetcher    414682250                       # number of demand (read+write) miss ticks (Tick)
board.cache_hierarchy.l2caches.demandMissLatency::processor.cores.core.inst     69801795                       # number of demand (read+write) miss ticks (Tick)
board.cache_hierarchy.l2caches.demandMissLatency::processor.cores.core.data  38121497343                       # number of demand (read+write) miss ticks (Tick)
board.cache_hierarchy.l2caches.demandMissLatency::total  38605981388                       # number of demand (read+write) miss ticks (Tick)
board.cache_hierarchy.l2caches.overallMissLatency::cache_hierarchy.l1dcaches.prefetcher    414682250                       # number of overall miss ticks (Tick)
board.cache_hierarchy.l2caches.overallMissLatency::processor.cores.core.inst     69801795                       # number of overall miss ticks (Tick)
board.cache_hierarchy.l2caches.overallMissLatency::processor.cores.core.data  38121497343                       # number of overall miss ticks (Tick)
board.cache_hierarchy.l2caches.overallMissLatency::total  38605981388                       # number of overall miss ticks (Tick)
board.cache_hierarchy.l2caches.demandAccesses::cache_hierarchy.l1dcaches.prefetcher         6596                       # number of demand (read+write) accesses (Count)
board.cache_hierarchy.l2caches.demandAccesses::processor.cores.core.inst         1326                       # number of demand (read+write) accesses (Count)
board.cache_hierarchy.l2caches.demandAccesses::processor.cores.core.data       753590                       # number of demand (read+write) accesses (Count)
board.cache_hierarchy.l2caches.demandAccesses::total       761512                       # number of demand (read+write) accesses (Count)
board.cache_hierarchy.l2caches.overallAccesses::cache_hierarchy.l1dcaches.prefetcher         6596                       # number of overall (read+write) accesses (Count)
board.cache_hierarchy.l2caches.overallAccesses::processor.cores.core.inst         1326                       # number of overall (read+write) accesses (Count)
board.cache_hierarchy.l2caches.overallAccesses::processor.cores.core.data       753590                       # number of overall (read+write) accesses (Count)
board.cache_hierarchy.l2caches.overallAccesses::total       761512                       # number of overall (read+write) accesses (Count)
board.cache_hierarchy.l2caches.demandMissRate::cache_hierarchy.l1dcaches.prefetcher     0.901001                       # miss rate for demand accesses (Ratio)
board.cache_hierarchy.l2caches.demandMissRate::processor.cores.core.inst     0.966817                       # miss rate for demand accesses (Ratio)
board.cache_hierarchy.l2caches.demandMissRate::processor.cores.core.data     0.981522                       # miss rate for demand accesses (Ratio)
board.cache_hierarchy.l2caches.demandMissRate::total     0.980799                       # miss rate for demand accesses (Ratio)
board.cache_hierarchy.l2caches.overallMissRate::cache_hierarchy.l1dcaches.prefetcher     0.901001                       # miss rate for overall accesses (Ratio)
board.cache_hierarchy.l2caches.overallMissRate::processor.cores.core.inst     0.966817                       # miss rate for overall accesses (Ratio)
board.cache_hierarchy.l2caches.overallMissRate::processor.cores.core.data     0.981522                       # miss rate for overall accesses (Ratio)
board.cache_hierarchy.l2caches.overallMissRate::total     0.980799                       # miss rate for overall accesses (Ratio)
board.cache_hierarchy.l2caches.demandAvgMissLatency::cache_hierarchy.l1dcaches.prefetcher 69776.585899                       # average overall miss latency in ticks ((Tick/Count))
board.cache_hierarchy.l2caches.demandAvgMissLatency::processor.cores.core.inst 54447.578003                       # average overall miss latency in ticks ((Tick/Count))
board.cache_hierarchy.l2caches.demandAvgMissLatency::processor.cores.core.data 51538.868735                       # average overall miss latency in ticks ((Tick/Count))
board.cache_hierarchy.l2caches.demandAvgMissLatency::total 51688.978816                       # average overall miss latency in ticks ((Tick/Count))
board.cache_hierarchy.l2caches.overallAvgMissLatency::cache_hierarchy.l1dcaches.prefetcher 69776.585899                       # average overall miss latency ((Tick/Count))
board.cache_hierarchy.l2caches.overallAvgMissLatency::processor.cores.core.inst 54447.578003                       # average overall miss latency ((Tick/Count))
board.cache_hierarchy.l2caches.overallAvgMissLatency::processor.cores.core.data 51538.868735                       # average overall miss latency ((Tick/Count))
board.cache_hierarchy.l2caches.overallAvgMissLatency::total 51688.978816                       # average overall miss latency ((Tick/Count))
board.cache_hierarchy.l2caches.blockedCycles::no_mshrs          150                       # number of cycles access was blocked (Cycle)
board.cache_hierarchy.l2caches.blockedCycles::no_targets            0                       # number of cycles access was blocked (Cycle)
board.cache_hierarchy.l2caches.blockedCauses::no_mshrs            2                       # number of times access was blocked (Count)
board.cache_hierarchy.l2caches.blockedCauses::no_targets            0                       # number of times access was blocked (Count)
board.cache_hierarchy.l2caches.avgBlocked::no_mshrs           75                       # average number of cycles each access was blocked ((Cycle/Count))
board.cache_hierarchy.l2caches.avgBlocked::no_targets          nan                       # average number of cycles each access was blocked ((Cycle/Count))
board.cache_hierarchy.l2caches.writebacks::writebacks          554                       # number of writebacks (Count)
board.cache_hierarchy.l2caches.writebacks::total          554                       # number of writebacks (Count)
board.cache_hierarchy.l2caches.demandMshrHits::cache_hierarchy.l1dcaches.prefetcher         2109                       # number of demand (read+write) MSHR hits (Count)
board.cache_hierarchy.l2caches.demandMshrHits::total         2109                       # number of demand (read+write) MSHR hits (Count)
board.cache_hierarchy.l2caches.overallMshrHits::cache_hierarchy.l1dcaches.prefetcher         2109                       # number of overall MSHR hits (Count)
board.cache_hierarchy.l2caches.overallMshrHits::total         2109                       # number of overall MSHR hits (Count)
board.cache_hierarchy.l2caches.demandMshrMisses::cache_hierarchy.l1dcaches.prefetcher         3834                       # number of demand (read+write) MSHR misses (Count)
board.cache_hierarchy.l2caches.demandMshrMisses::processor.cores.core.inst         1282                       # number of demand (read+write) MSHR misses (Count)
board.cache_hierarchy.l2caches.demandMshrMisses::processor.cores.core.data       739665                       # number of demand (read+write) MSHR misses (Count)
board.cache_hierarchy.l2caches.demandMshrMisses::total       744781                       # number of demand (read+write) MSHR misses (Count)
board.cache_hierarchy.l2caches.overallMshrMisses::cache_hierarchy.l1dcaches.prefetcher         3834                       # number of overall MSHR misses (Count)
board.cache_hierarchy.l2caches.overallMshrMisses::cache_hierarchy.l2caches.prefetcher         5927                       # number of overall MSHR misses (Count)
board.cache_hierarchy.l2caches.overallMshrMisses::processor.cores.core.inst         1282                       # number of overall MSHR misses (Count)
board.cache_hierarchy.l2caches.overallMshrMisses::processor.cores.core.data       739665                       # number of overall MSHR misses (Count)
board.cache_hierarchy.l2caches.overallMshrMisses::total       750708                       # number of overall MSHR misses (Count)
board.cache_hierarchy.l2caches.demandMshrMissLatency::cache_hierarchy.l1dcaches.prefetcher    307996136                       # number of demand (read+write) MSHR miss ticks (Tick)
board.cache_hierarchy.l2caches.demandMshrMissLatency::processor.cores.core.inst     69375222                       # number of demand (read+write) MSHR miss ticks (Tick)
board.cache_hierarchy.l2caches.demandMshrMissLatency::processor.cores.core.data  37875188898                       # number of demand (read+write) MSHR miss ticks (Tick)
board.cache_hierarchy.l2caches.demandMshrMissLatency::total  38252560256                       # number of demand (read+write) MSHR miss ticks (Tick)
board.cache_hierarchy.l2caches.overallMshrMissLatency::cache_hierarchy.l1dcaches.prefetcher    307996136                       # number of overall MSHR miss ticks (Tick)
board.cache_hierarchy.l2caches.overallMshrMissLatency::cache_hierarchy.l2caches.prefetcher    354853976                       # number of overall MSHR miss ticks (Tick)
board.cache_hierarchy.l2caches.overallMshrMissLatency::processor.cores.core.inst     69375222                       # number of overall MSHR miss ticks (Tick)
board.cache_hierarchy.l2caches.overallMshrMissLatency::processor.cores.core.data  37875188898                       # number of overall MSHR miss ticks (Tick)
board.cache_hierarchy.l2caches.overallMshrMissLatency::total  38607414232                       # number of overall MSHR miss ticks (Tick)
board.cache_hierarchy.l2caches.demandMshrMissRate::cache_hierarchy.l1dcaches.prefetcher     0.581261                       # mshr miss ratio for demand accesses (Ratio)
board.cache_hierarchy.l2caches.demandMshrMissRate::processor.cores.core.inst     0.966817                       # mshr miss ratio for demand accesses (Ratio)
board.cache_hierarchy.l2caches.demandMshrMissRate::processor.cores.core.data     0.981522                       # mshr miss ratio for demand accesses (Ratio)
board.cache_hierarchy.l2caches.demandMshrMissRate::total     0.978029                       # mshr miss ratio for demand accesses (Ratio)
board.cache_hierarchy.l2caches.overallMshrMissRate::cache_hierarchy.l1dcaches.prefetcher     0.581261                       # mshr miss ratio for overall accesses (Ratio)
board.cache_hierarchy.l2caches.overallMshrMissRate::cache_hierarchy.l2caches.prefetcher          inf                       # mshr miss ratio for overall accesses (Ratio)
board.cache_hierarchy.l2caches.overallMshrMissRate::processor.cores.core.inst     0.966817                       # mshr miss ratio for overall accesses (Ratio)
board.cache_hierarchy.l2caches.overallMshrMissRate::processor.cores.core.data     0.981522                       # mshr miss ratio for overall accesses (Ratio)
board.cache_hierarchy.l2caches.overallMshrMissRate::total     0.985812                       # mshr miss ratio for overall accesses (Ratio)
board.cache_hierarchy.l2caches.demandAvgMshrMissLatency::cache_hierarchy.l1dcaches.prefetcher 80332.847157                       # average overall mshr miss latency ((Tick/Count))
board.cache_hierarchy.l2caches.demandAvgMshrMissLatency::processor.cores.core.inst 54114.837754                       # average overall mshr miss latency ((Tick/Count))
board.cache_hierarchy.l2caches.demandAvgMshrMissLatency::processor.cores.core.data 51205.868735                       # average overall mshr miss latency ((Tick/Count))
board.cache_hierarchy.l2caches.demandAvgMshrMissLatency::total 51360.816476                       # average overall mshr miss latency ((Tick/Count))
board.cache_hierarchy.l2caches.overallAvgMshrMissLatency::cache_hierarchy.l1dcaches.prefetcher 80332.847157                       # average overall mshr miss latency ((Tick/Count))
board.cache_hierarchy.l2caches.overallAvgMshrMissLatency::cache_hierarchy.l2caches.prefetcher 59870.756875                       # average overall mshr miss latency ((Tick/Count))
board.cache_hierarchy.l2caches.overallAvgMshrMissLatency::processor.cores.core.inst 54114.837754                       # average overall mshr miss latency ((Tick/Count))
board.cache_hierarchy.l2caches.overallAvgMshrMissLatency::processor.cores.core.data 51205.868735                       # average overall mshr miss latency ((Tick/Count))
board.cache_hierarchy.l2caches.overallAvgMshrMissLatency::total 51428.004273                       # average overall mshr miss latency ((Tick/Count))
board.cache_hierarchy.l2caches.replacements         2328                       # number of replacements (Count)
board.cache_hierarchy.l2caches.CleanInvalidReq.missLatency::processor.cores.core.data   4968666360                       # number of CleanInvalidReq miss ticks (Tick)
board.cache_hierarchy.l2caches.CleanInvalidReq.missLatency::total   4968666360                       # number of CleanInvalidReq miss ticks (Tick)
board.cache_hierarchy.l2caches.CleanInvalidReq.avgMissLatency::processor.cores.core.data          inf                       # average CleanInvalidReq miss latency ((Tick/Count))
board.cache_hierarchy.l2caches.CleanInvalidReq.avgMissLatency::total          inf                       # average CleanInvalidReq miss latency ((Tick/Count))
board.cache_hierarchy.l2caches.CleanInvalidReq.mshrMisses::processor.cores.core.data      5402800                       # number of CleanInvalidReq MSHR misses (Count)
board.cache_hierarchy.l2caches.CleanInvalidReq.mshrMisses::total      5402800                       # number of CleanInvalidReq MSHR misses (Count)
board.cache_hierarchy.l2caches.CleanInvalidReq.mshrMissLatency::processor.cores.core.data  34183515600                       # number of CleanInvalidReq MSHR miss ticks (Tick)
board.cache_hierarchy.l2caches.CleanInvalidReq.mshrMissLatency::total  34183515600                       # number of CleanInvalidReq MSHR miss ticks (Tick)
board.cache_hierarchy.l2caches.CleanInvalidReq.mshrMissRate::processor.cores.core.data          inf                       # mshr miss rate for CleanInvalidReq accesses (Ratio)
board.cache_hierarchy.l2caches.CleanInvalidReq.mshrMissRate::total          inf                       # mshr miss rate for CleanInvalidReq accesses (Ratio)
board.cache_hierarchy.l2caches.CleanInvalidReq.avgMshrMissLatency::processor.cores.core.data         6327                       # average CleanInvalidReq mshr miss latency ((Tick/Count))
board.cache_hierarchy.l2caches.CleanInvalidReq.avgMshrMissLatency::total         6327                       # average CleanInvalidReq mshr miss latency ((Tick/Count))
board.cache_hierarchy.l2caches.HardPFReq.mshrMisses::cache_hierarchy.l2caches.prefetcher         5927                       # number of HardPFReq MSHR misses (Count)
board.cache_hierarchy.l2caches.HardPFReq.mshrMisses::total         5927                       # number of HardPFReq MSHR misses (Count)
board.cache_hierarchy.l2caches.HardPFReq.mshrMissLatency::cache_hierarchy.l2caches.prefetcher    354853976                       # number of HardPFReq MSHR miss ticks (Tick)
board.cache_hierarchy.l2caches.HardPFReq.mshrMissLatency::total    354853976                       # number of HardPFReq MSHR miss ticks (Tick)
board.cache_hierarchy.l2caches.HardPFReq.mshrMissRate::cache_hierarchy.l2caches.prefetcher          inf                       # mshr miss rate for HardPFReq accesses (Ratio)
board.cache_hierarchy.l2caches.HardPFReq.mshrMissRate::total          inf                       # mshr miss rate for HardPFReq accesses (Ratio)
board.cache_hierarchy.l2caches.HardPFReq.avgMshrMissLatency::cache_hierarchy.l2caches.prefetcher 59870.756875                       # average HardPFReq mshr miss latency ((Tick/Count))
board.cache_hierarchy.l2caches.HardPFReq.avgMshrMissLatency::total 59870.756875                       # average HardPFReq mshr miss latency ((Tick/Count))
board.cache_hierarchy.l2caches.ReadExReq.hits::processor.cores.core.data          550                       # number of ReadExReq hits (Count)
board.cache_hierarchy.l2caches.ReadExReq.hits::total          550                       # number of ReadExReq hits (Count)
board.cache_hierarchy.l2caches.ReadExReq.misses::processor.cores.core.data          869                       # number of ReadExReq misses (Count)
board.cache_hierarchy.l2caches.ReadExReq.misses::total          869                       # number of ReadExReq misses (Count)
board.cache_hierarchy.l2caches.ReadExReq.missLatency::processor.cores.core.data     52227387                       # number of ReadExReq miss ticks (Tick)
board.cache_hierarchy.l2caches.ReadExReq.missLatency::total     52227387                       # number of ReadExReq miss ticks (Tick)
board.cache_hierarchy.l2caches.ReadExReq.accesses::processor.cores.core.data         1419                       # number of ReadExReq accesses(hits+misses) (Count)
board.cache_hierarchy.l2caches.ReadExReq.accesses::total         1419                       # number of ReadExReq accesses(hits+misses) (Count)
board.cache_hierarchy.l2caches.ReadExReq.missRate::processor.cores.core.data     0.612403                       # miss rate for ReadExReq accesses (Ratio)
board.cache_hierarchy.l2caches.ReadExReq.missRate::total     0.612403                       # miss rate for ReadExReq accesses (Ratio)
board.cache_hierarchy.l2caches.ReadExReq.avgMissLatency::processor.cores.core.data 60100.560414                       # average ReadExReq miss latency ((Tick/Count))
board.cache_hierarchy.l2caches.ReadExReq.avgMissLatency::total 60100.560414                       # average ReadExReq miss latency ((Tick/Count))
board.cache_hierarchy.l2caches.ReadExReq.mshrMisses::processor.cores.core.data          869                       # number of ReadExReq MSHR misses (Count)
board.cache_hierarchy.l2caches.ReadExReq.mshrMisses::total          869                       # number of ReadExReq MSHR misses (Count)
board.cache_hierarchy.l2caches.ReadExReq.mshrMissLatency::processor.cores.core.data     51938010                       # number of ReadExReq MSHR miss ticks (Tick)
board.cache_hierarchy.l2caches.ReadExReq.mshrMissLatency::total     51938010                       # number of ReadExReq MSHR miss ticks (Tick)
board.cache_hierarchy.l2caches.ReadExReq.mshrMissRate::processor.cores.core.data     0.612403                       # mshr miss rate for ReadExReq accesses (Ratio)
board.cache_hierarchy.l2caches.ReadExReq.mshrMissRate::total     0.612403                       # mshr miss rate for ReadExReq accesses (Ratio)
board.cache_hierarchy.l2caches.ReadExReq.avgMshrMissLatency::processor.cores.core.data 59767.560414                       # average ReadExReq mshr miss latency ((Tick/Count))
board.cache_hierarchy.l2caches.ReadExReq.avgMshrMissLatency::total 59767.560414                       # average ReadExReq mshr miss latency ((Tick/Count))
board.cache_hierarchy.l2caches.ReadSharedReq.hits::cache_hierarchy.l1dcaches.prefetcher          653                       # number of ReadSharedReq hits (Count)
board.cache_hierarchy.l2caches.ReadSharedReq.hits::processor.cores.core.inst           44                       # number of ReadSharedReq hits (Count)
board.cache_hierarchy.l2caches.ReadSharedReq.hits::processor.cores.core.data        13375                       # number of ReadSharedReq hits (Count)
board.cache_hierarchy.l2caches.ReadSharedReq.hits::total        14072                       # number of ReadSharedReq hits (Count)
board.cache_hierarchy.l2caches.ReadSharedReq.misses::cache_hierarchy.l1dcaches.prefetcher         5943                       # number of ReadSharedReq misses (Count)
board.cache_hierarchy.l2caches.ReadSharedReq.misses::processor.cores.core.inst         1282                       # number of ReadSharedReq misses (Count)
board.cache_hierarchy.l2caches.ReadSharedReq.misses::processor.cores.core.data       738796                       # number of ReadSharedReq misses (Count)
board.cache_hierarchy.l2caches.ReadSharedReq.misses::total       746021                       # number of ReadSharedReq misses (Count)
board.cache_hierarchy.l2caches.ReadSharedReq.missLatency::cache_hierarchy.l1dcaches.prefetcher    414682250                       # number of ReadSharedReq miss ticks (Tick)
board.cache_hierarchy.l2caches.ReadSharedReq.missLatency::processor.cores.core.inst     69801795                       # number of ReadSharedReq miss ticks (Tick)
board.cache_hierarchy.l2caches.ReadSharedReq.missLatency::processor.cores.core.data  38069269956                       # number of ReadSharedReq miss ticks (Tick)
board.cache_hierarchy.l2caches.ReadSharedReq.missLatency::total  38553754001                       # number of ReadSharedReq miss ticks (Tick)
board.cache_hierarchy.l2caches.ReadSharedReq.accesses::cache_hierarchy.l1dcaches.prefetcher         6596                       # number of ReadSharedReq accesses(hits+misses) (Count)
board.cache_hierarchy.l2caches.ReadSharedReq.accesses::processor.cores.core.inst         1326                       # number of ReadSharedReq accesses(hits+misses) (Count)
board.cache_hierarchy.l2caches.ReadSharedReq.accesses::processor.cores.core.data       752171                       # number of ReadSharedReq accesses(hits+misses) (Count)
board.cache_hierarchy.l2caches.ReadSharedReq.accesses::total       760093                       # number of ReadSharedReq accesses(hits+misses) (Count)
board.cache_hierarchy.l2caches.ReadSharedReq.missRate::cache_hierarchy.l1dcaches.prefetcher     0.901001                       # miss rate for ReadSharedReq accesses (Ratio)
board.cache_hierarchy.l2caches.ReadSharedReq.missRate::processor.cores.core.inst     0.966817                       # miss rate for ReadSharedReq accesses (Ratio)
board.cache_hierarchy.l2caches.ReadSharedReq.missRate::processor.cores.core.data     0.982218                       # miss rate for ReadSharedReq accesses (Ratio)
board.cache_hierarchy.l2caches.ReadSharedReq.missRate::total     0.981486                       # miss rate for ReadSharedReq accesses (Ratio)
board.cache_hierarchy.l2caches.ReadSharedReq.avgMissLatency::cache_hierarchy.l1dcaches.prefetcher 69776.585899                       # average ReadSharedReq miss latency ((Tick/Count))
board.cache_hierarchy.l2caches.ReadSharedReq.avgMissLatency::processor.cores.core.inst 54447.578003                       # average ReadSharedReq miss latency ((Tick/Count))
board.cache_hierarchy.l2caches.ReadSharedReq.avgMissLatency::processor.cores.core.data 51528.798147                       # average ReadSharedReq miss latency ((Tick/Count))
board.cache_hierarchy.l2caches.ReadSharedReq.avgMissLatency::total 51679.180614                       # average ReadSharedReq miss latency ((Tick/Count))
board.cache_hierarchy.l2caches.ReadSharedReq.mshrHits::cache_hierarchy.l1dcaches.prefetcher         2109                       # number of ReadSharedReq MSHR hits (Count)
board.cache_hierarchy.l2caches.ReadSharedReq.mshrHits::total         2109                       # number of ReadSharedReq MSHR hits (Count)
board.cache_hierarchy.l2caches.ReadSharedReq.mshrMisses::cache_hierarchy.l1dcaches.prefetcher         3834                       # number of ReadSharedReq MSHR misses (Count)
board.cache_hierarchy.l2caches.ReadSharedReq.mshrMisses::processor.cores.core.inst         1282                       # number of ReadSharedReq MSHR misses (Count)
board.cache_hierarchy.l2caches.ReadSharedReq.mshrMisses::processor.cores.core.data       738796                       # number of ReadSharedReq MSHR misses (Count)
board.cache_hierarchy.l2caches.ReadSharedReq.mshrMisses::total       743912                       # number of ReadSharedReq MSHR misses (Count)
board.cache_hierarchy.l2caches.ReadSharedReq.mshrMissLatency::cache_hierarchy.l1dcaches.prefetcher    307996136                       # number of ReadSharedReq MSHR miss ticks (Tick)
board.cache_hierarchy.l2caches.ReadSharedReq.mshrMissLatency::processor.cores.core.inst     69375222                       # number of ReadSharedReq MSHR miss ticks (Tick)
board.cache_hierarchy.l2caches.ReadSharedReq.mshrMissLatency::processor.cores.core.data  37823250888                       # number of ReadSharedReq MSHR miss ticks (Tick)
board.cache_hierarchy.l2caches.ReadSharedReq.mshrMissLatency::total  38200622246                       # number of ReadSharedReq MSHR miss ticks (Tick)
board.cache_hierarchy.l2caches.ReadSharedReq.mshrMissRate::cache_hierarchy.l1dcaches.prefetcher     0.581261                       # mshr miss rate for ReadSharedReq accesses (Ratio)
board.cache_hierarchy.l2caches.ReadSharedReq.mshrMissRate::processor.cores.core.inst     0.966817                       # mshr miss rate for ReadSharedReq accesses (Ratio)
board.cache_hierarchy.l2caches.ReadSharedReq.mshrMissRate::processor.cores.core.data     0.982218                       # mshr miss rate for ReadSharedReq accesses (Ratio)
board.cache_hierarchy.l2caches.ReadSharedReq.mshrMissRate::total     0.978712                       # mshr miss rate for ReadSharedReq accesses (Ratio)
[...]
board.processor.cores.core.fetch.pendingTrapStallCycles         3012                       # Number of stall cycles due to pending traps (Cycle)
board.processor.cores.core.fetch.cacheLines     94587730                       # Number of cache lines fetched (Count)
board.processor.cores.core.fetch.icacheSquashes          876                       # Number of outstanding Icache misses that were squashed (Count)
board.processor.cores.core.fetch.nisnDist::samples    536435174                       # Number of instructions fetched each cycle (Total) (Count)
board.processor.cores.core.fetch.nisnDist::mean     1.947738                       # Number of instructions fetched each cycle (Total) (Count)
board.processor.cores.core.fetch.nisnDist::stdev     3.074074                       # Number of instructions fetched each cycle (Total) (Count)
board.processor.cores.core.fetch.nisnDist::underflows            0      0.00%      0.00% # Number of instructions fetched each cycle (Total) (Count)
board.processor.cores.core.fetch.nisnDist::0    329888348     61.50%     61.50% # Number of instructions fetched each cycle (Total) (Count)
board.processor.cores.core.fetch.nisnDist::1     45202958      8.43%     69.92% # Number of instructions fetched each cycle (Total) (Count)
board.processor.cores.core.fetch.nisnDist::2      3637732      0.68%     70.60% # Number of instructions fetched each cycle (Total) (Count)
board.processor.cores.core.fetch.nisnDist::3     44698549      8.33%     78.93% # Number of instructions fetched each cycle (Total) (Count)
board.processor.cores.core.fetch.nisnDist::4      3814285      0.71%     79.64% # Number of instructions fetched each cycle (Total) (Count)
board.processor.cores.core.fetch.nisnDist::5      7589041      1.41%     81.06% # Number of instructions fetched each cycle (Total) (Count)
board.processor.cores.core.fetch.nisnDist::6      2750848      0.51%     81.57% # Number of instructions fetched each cycle (Total) (Count)
board.processor.cores.core.fetch.nisnDist::7      2273620      0.42%     82.00% # Number of instructions fetched each cycle (Total) (Count)
board.processor.cores.core.fetch.nisnDist::8     96579793     18.00%    100.00% # Number of instructions fetched each cycle (Total) (Count)
board.processor.cores.core.fetch.nisnDist::overflows            0      0.00%    100.00% # Number of instructions fetched each cycle (Total) (Count)
board.processor.cores.core.fetch.nisnDist::min_value            0                       # Number of instructions fetched each cycle (Total) (Count)
board.processor.cores.core.fetch.nisnDist::max_value            8                       # Number of instructions fetched each cycle (Total) (Count)
board.processor.cores.core.fetch.nisnDist::total    536435174                       # Number of instructions fetched each cycle (Total) (Count)
board.processor.cores.core.fetchStats0.numInsts    633670526                       # Number of instructions fetched (thread level) (Count)
board.processor.cores.core.fetchStats0.numOps            0                       # Number of ops (including micro ops) fetched (thread level) (Count)
board.processor.cores.core.fetchStats0.fetchRate     1.181037                       # Number of inst fetches per cycle ((Count/Cycle))
board.processor.cores.core.fetchStats0.numBranches     59815962                       # Number of branches fetched (Count)
board.processor.cores.core.fetchStats0.branchRate     0.111485                       # Number of branch fetches per cycle (Ratio)
board.processor.cores.core.fetchStats0.icacheStallCycles       107772                       # ICache total stall cycles (Cycle)
board.processor.cores.core.fetchStats0.numFetchSuspends            0                       # Number of times Execute suspended instruction fetching (Count)
board.processor.cores.core.iew.idleCycles            0                       # Number of cycles IEW is idle (Cycle)
board.processor.cores.core.iew.squashCycles      5884384                       # Number of cycles IEW is squashing (Cycle)
board.processor.cores.core.iew.blockCycles    168535499                       # Number of cycles IEW is blocking (Cycle)
board.processor.cores.core.iew.unblockCycles     10935988                       # Number of cycles IEW is unblocking (Cycle)
board.processor.cores.core.iew.dispatchedInsts    760147031                       # Number of instructions dispatched to IQ (Count)
board.processor.cores.core.iew.dispSquashedInsts          195                       # Number of squashed instructions skipped by dispatch (Count)
board.processor.cores.core.iew.dispLoadInsts    153426206                       # Number of dispatched load instructions (Count)
board.processor.cores.core.iew.dispStoreInsts     97754700                       # Number of dispatched store instructions (Count)
board.processor.cores.core.iew.dispNonSpecInsts           21                       # Number of dispatched non-speculative instructions (Count)
board.processor.cores.core.iew.iqFullEvents      5594058                       # Number of times the IQ has become full, causing a stall (Count)
board.processor.cores.core.iew.lsqFullEvents         1228                       # Number of times the LSQ has become full, causing a stall (Count)
board.processor.cores.core.iew.memOrderViolationEvents      5823861                       # Number of memory order violations (Count)
board.processor.cores.core.iew.predictedTakenIncorrect       151188                       # Number of branches that were predicted taken incorrectly (Count)
board.processor.cores.core.iew.predictedNotTakenIncorrect        11425                       # Number of branches that were predicted not taken incorrectly (Count)
board.processor.cores.core.iew.branchMispredicts       162613                       # Number of branch mispredicts detected at execute (Count)
board.processor.cores.core.iew.instsToCommit    458471207                       # Cumulative count of insts sent to commit (Count)
board.processor.cores.core.iew.writebackCount    457975132                       # Cumulative count of insts written-back (Count)
board.processor.cores.core.iew.producerInst    328531501                       # Number of instructions producing a value (Count)
board.processor.cores.core.iew.consumerInst    426869607                       # Number of instructions consuming a value (Count)
board.processor.cores.core.iew.wbRate        0.853575                       # Insts written-back per cycle ((Count/Cycle))
board.processor.cores.core.iew.wbFanout      0.769630                       # Average fanout of values written-back ((Count/Count))
board.processor.cores.core.interrupts.clk_domain.clock         5328                       # Clock period in ticks (Tick)
board.processor.cores.core.lsq0.forwLoads     27700343                       # Number of loads that had data forwarded from stores (Count)
board.processor.cores.core.lsq0.squashedLoads    101215423                       # Number of loads squashed (Count)
board.processor.cores.core.lsq0.ignoredResponses          108                       # Number of memory responses ignored because the instruction is squashed (Count)
board.processor.cores.core.lsq0.memOrderViolation      5823861                       # Number of memory ordering violations (Count)
board.processor.cores.core.lsq0.squashedStores     66677657                       # Number of stores squashed (Count)
board.processor.cores.core.lsq0.rescheduledLoads          241                       # Number of loads that were rescheduled (Count)
board.processor.cores.core.lsq0.blockedByCache            0                       # Number of times an access to memory failed due to the cache being blocked (Count)
board.processor.cores.core.lsq0.loadToUse::samples     52210783                       # Distribution of cycle latency between the first time a load is issued and its completion (Unspecified)
board.processor.cores.core.lsq0.loadToUse::mean     4.284500                       # Distribution of cycle latency between the first time a load is issued and its completion (Unspecified)
board.processor.cores.core.lsq0.loadToUse::stdev    20.727697                       # Distribution of cycle latency between the first time a load is issued and its completion (Unspecified)
board.processor.cores.core.lsq0.loadToUse::0-9     51451614     98.55%     98.55% # Distribution of cycle latency between the first time a load is issued and its completion (Unspecified)
board.processor.cores.core.lsq0.loadToUse::10-19        18245      0.03%     98.58% # Distribution of cycle latency between the first time a load is issued and its completion (Unspecified)
board.processor.cores.core.lsq0.loadToUse::20-29          394      0.00%     98.58% # Distribution of cycle latency between the first time a load is issued and its completion (Unspecified)
board.processor.cores.core.lsq0.loadToUse::30-39          186      0.00%     98.58% # Distribution of cycle latency between the first time a load is issued and its completion (Unspecified)
board.processor.cores.core.lsq0.loadToUse::40-49           91      0.00%     98.58% # Distribution of cycle latency between the first time a load is issued and its completion (Unspecified)
board.processor.cores.core.lsq0.loadToUse::50-59         5259      0.01%     98.59% # Distribution of cycle latency between the first time a load is issued and its completion (Unspecified)
board.processor.cores.core.lsq0.loadToUse::60-69           69      0.00%     98.59% # Distribution of cycle latency between the first time a load is issued and its completion (Unspecified)
board.processor.cores.core.lsq0.loadToUse::70-79          436      0.00%     98.59% # Distribution of cycle latency between the first time a load is issued and its completion (Unspecified)
board.processor.cores.core.lsq0.loadToUse::80-89          107      0.00%     98.59% # Distribution of cycle latency between the first time a load is issued and its completion (Unspecified)
board.processor.cores.core.lsq0.loadToUse::90-99          131      0.00%     98.59% # Distribution of cycle latency between the first time a load is issued and its completion (Unspecified)
board.processor.cores.core.lsq0.loadToUse::100-109          156      0.00%     98.59% # Distribution of cycle latency between the first time a load is issued and its completion (Unspecified)
board.processor.cores.core.lsq0.loadToUse::110-119          188      0.00%     98.59% # Distribution of cycle latency between the first time a load is issued and its completion (Unspecified)
board.processor.cores.core.lsq0.loadToUse::120-129          148      0.00%     98.59% # Distribution of cycle latency between the first time a load is issued and its completion (Unspecified)
board.processor.cores.core.lsq0.loadToUse::130-139          228      0.00%     98.60% # Distribution of cycle latency between the first time a load is issued and its completion (Unspecified)
board.processor.cores.core.lsq0.loadToUse::140-149       585924      1.12%     99.72% # Distribution of cycle latency between the first time a load is issued and its completion (Unspecified)
board.processor.cores.core.lsq0.loadToUse::150-159          130      0.00%     99.72% # Distribution of cycle latency between the first time a load is issued and its completion (Unspecified)
board.processor.cores.core.lsq0.loadToUse::160-169          766      0.00%     99.72% # Distribution of cycle latency between the first time a load is issued and its completion (Unspecified)
board.processor.cores.core.lsq0.loadToUse::170-179          232      0.00%     99.72% # Distribution of cycle latency between the first time a load is issued and its completion (Unspecified)
board.processor.cores.core.lsq0.loadToUse::180-189       128171      0.25%     99.96% # Distribution of cycle latency between the first time a load is issued and its completion (Unspecified)
board.processor.cores.core.lsq0.loadToUse::190-199          355      0.00%     99.97% # Distribution of cycle latency between the first time a load is issued and its completion (Unspecified)
board.processor.cores.core.lsq0.loadToUse::200-209          314      0.00%     99.97% # Distribution of cycle latency between the first time a load is issued and its completion (Unspecified)
board.processor.cores.core.lsq0.loadToUse::210-219           73      0.00%     99.97% # Distribution of cycle latency between the first time a load is issued and its completion (Unspecified)
board.processor.cores.core.lsq0.loadToUse::220-229         8427      0.02%     99.98% # Distribution of cycle latency between the first time a load is issued and its completion (Unspecified)
board.processor.cores.core.lsq0.loadToUse::230-239          111      0.00%     99.98% # Distribution of cycle latency between the first time a load is issued and its completion (Unspecified)
board.processor.cores.core.lsq0.loadToUse::240-249           35      0.00%     99.98% # Distribution of cycle latency between the first time a load is issued and its completion (Unspecified)
board.processor.cores.core.lsq0.loadToUse::250-259           83      0.00%     99.98% # Distribution of cycle latency between the first time a load is issued and its completion (Unspecified)
board.processor.cores.core.lsq0.loadToUse::260-269           15      0.00%     99.98% # Distribution of cycle latency between the first time a load is issued and its completion (Unspecified)
board.processor.cores.core.lsq0.loadToUse::270-279            5      0.00%     99.98% # Distribution of cycle latency between the first time a load is issued and its completion (Unspecified)
board.processor.cores.core.lsq0.loadToUse::280-289           37      0.00%     99.98% # Distribution of cycle latency between the first time a load is issued and its completion (Unspecified)
board.processor.cores.core.lsq0.loadToUse::290-299           28      0.00%     99.98% # Distribution of cycle latency between the first time a load is issued and its completion (Unspecified)
board.processor.cores.core.lsq0.loadToUse::overflows         8825      0.02%    100.00% # Distribution of cycle latency between the first time a load is issued and its completion (Unspecified)
board.processor.cores.core.lsq0.loadToUse::min_value            2                       # Distribution of cycle latency between the first time a load is issued and its completion (Unspecified)
board.processor.cores.core.lsq0.loadToUse::max_value         1119                       # Distribution of cycle latency between the first time a load is issued and its completion (Unspecified)
board.processor.cores.core.lsq0.loadToUse::total     52210783                       # Distribution of cycle latency between the first time a load is issued and its completion (Unspecified)
board.processor.cores.core.mmu.dtb.rdAccesses     70342193                       # TLB accesses on read requests (Count)
board.processor.cores.core.mmu.dtb.wrAccesses     36614637                       # TLB accesses on write requests (Count)
board.processor.cores.core.mmu.dtb.rdMisses          420                       # TLB misses on read requests (Count)
board.processor.cores.core.mmu.dtb.wrMisses          161                       # TLB misses on write requests (Count)
board.processor.cores.core.mmu.dtb.walker.power_state.pwrStateResidencyTicks::UNDEFINED 178666945209                       # Cumulative time (in ticks) in various power states (Tick)
board.processor.cores.core.mmu.itb.rdAccesses            0                       # TLB accesses on read requests (Count)
board.processor.cores.core.mmu.itb.wrAccesses     94588220                       # TLB accesses on write requests (Count)
board.processor.cores.core.mmu.itb.rdMisses            0                       # TLB misses on read requests (Count)
board.processor.cores.core.mmu.itb.wrMisses          623                       # TLB misses on write requests (Count)
board.processor.cores.core.mmu.itb.walker.power_state.pwrStateResidencyTicks::UNDEFINED 178666945209                       # Cumulative time (in ticks) in various power states (Tick)
board.processor.cores.core.power_state.pwrStateResidencyTicks::ON 178666945209                       # Cumulative time (in ticks) in various power states (Tick)
board.processor.cores.core.rename.squashCycles      5884384                       # Number of cycles rename is squashing (Cycle)
board.processor.cores.core.rename.idleCycles     33216973                       # Number of cycles rename is idle (Cycle)
board.processor.cores.core.rename.blockCycles    199642812                       # Number of cycles rename is blocking (Cycle)
board.processor.cores.core.rename.serializeStallCycles    130646840                       # count of cycles rename stalled for serializing inst (Cycle)
board.processor.cores.core.rename.runCycles     98301739                       # Number of cycles rename is running (Cycle)
board.processor.cores.core.rename.unblockCycles     68742426                       # Number of cycles rename is unblocking (Cycle)
board.processor.cores.core.rename.renamedInsts    804349299                       # Number of instructions processed by rename (Count)
board.processor.cores.core.rename.ROBFullEvents         3669                       # Number of times rename has blocked due to ROB full (Count)
board.processor.cores.core.rename.IQFullEvents     57223573                       # Number of times rename has blocked due to IQ full (Count)
board.processor.cores.core.rename.LQFullEvents         1061                       # Number of times rename has blocked due to LQ full (Count)
board.processor.cores.core.rename.SQFullEvents        93442                       # Number of times rename has blocked due to SQ full (Count)
board.processor.cores.core.rename.renamedOperands   1374371403                       # Number of destination operands rename has renamed (Count)
board.processor.cores.core.rename.lookups   2630853268                       # Number of register rename lookups that rename has made (Count)
board.processor.cores.core.rename.intLookups    896396475                       # Number of integer rename lookups (Count)
board.processor.cores.core.rename.fpLookups        45131                       # Number of floating rename lookups (Count)
board.processor.cores.core.rename.committedMaps    458080758                       # Number of HB maps that are committed (Count)
board.processor.cores.core.rename.undoneMaps    916290636                       # Number of HB maps that are undone due to squashing (Count)
board.processor.cores.core.rename.serializing      1667123                       # count of serializing insts renamed (Count)
board.processor.cores.core.rename.tempSerializing           41                       # count of temporary serializing insts renamed (Count)
board.processor.cores.core.rename.skidInsts    181690974                       # count of insts added to the skid buffer (Count)
board.processor.cores.core.rob.reads       1231319323                       # The number of ROB reads (Count)
board.processor.cores.core.rob.writes      1582399555                       # The number of ROB writes (Count)
board.processor.cores.core.thread_0.numInsts    162307448                       # Number of Instructions committed (Count)
board.processor.cores.core.thread_0.numOps    264170227                       # Number of Ops committed (Count)
board.processor.cores.core.thread_0.numMemRefs            0                       # Number of Memory References (Count)
board.processor.cores.core.workload.numSyscalls           74                       # Number of system calls (Count)
board.workload.inst.arm                             0                       # number of arm instructions executed (Count)
board.workload.inst.quiesce                         0                       # number of quiesce instructions executed (Count)

---------- End Simulation Statistics   ----------
