
---------- Begin Simulation Statistics ----------
simSeconds                                   0.178687                       # Number of seconds simulated (Second)
simTicks                                 178687405728                       # Number of ticks simulated (Tick)
finalTick                                178687405728                       # Number of ticks from beginning of simulation (restored from checkpoints and never reset) (Tick)
simFreq                                  1000000000000                       # The number of ticks per simulated second ((Tick/Second))
hostSeconds                                   2009.66                       # Real time elapsed on the host (Second)
hostTickRate                                 88914051                       # The number of ticks simulated per host second (ticks/s) ((Tick/Second))
hostMemory                                    1227084                       # Number of bytes of host memory used (Byte)
simInsts                                    162262094                       # Number of instructions simulated (Count)
simOps                                      264092747                       # Number of ops (including micro ops) simulated (Count)
hostInstRate                                    80741                       # Simulator instruction rate (inst/s) ((Count/Second))
hostOpRate                                     131411                       # Simulator op (including micro ops) rate (op/s) ((Count/Second))
board.cache_hierarchy.dptw_caches.blockedCycles::no_mshrs            0                       # number of cycles access was blocked (Cycle)
board.cache_hierarchy.dptw_caches.blockedCycles::no_targets            0                       # number of cycles access was blocked (Cycle)
board.cache_hierarchy.dptw_caches.blockedCauses::no_mshrs            0                       # number of times access was blocked (Count)
board.cache_hierarchy.dptw_caches.blockedCauses::no_targets            0                       # number of times access was blocked (Count)
board.cache_hierarchy.dptw_caches.avgBlocked::no_mshrs          nan                       # average number of cycles each access was blocked ((Cycle/Count))
board.cache_hierarchy.dptw_caches.avgBlocked::no_targets          nan                       # average number of cycles each access was blocked ((Cycle/Count))
board.cache_hierarchy.dptw_caches.replacements            0                       # number of replacements (Count)
board.cache_hierarchy.dptw_caches.power_state.pwrStateResidencyTicks::UNDEFINED 178687405728                       # Cumulative time (in ticks) in various power states (Tick)
board.cache_hierarchy.dptw_caches.tags.tagsInUse            0                       # Average ticks per tags in use ((Tick/Count))
board.cache_hierarchy.dptw_caches.tags.totalRefs            0                       # Total number of references to valid blocks. (Count)
board.cache_hierarchy.dptw_caches.tags.sampledRefs            0                       # Sample count of references to valid blocks. (Count)
board.cache_hierarchy.dptw_caches.tags.avgRefs          nan                       # Average number of references to valid blocks. ((Count/Count))
board.cache_hierarchy.dptw_caches.tags.warmupTick            0                       # The tick when the warmup percentage was hit. (Tick)
board.cache_hierarchy.dptw_caches.tags.tagAccesses            0                       # Number of tag accesses (Count)
board.cache_hierarchy.dptw_caches.tags.dataAccesses            0                       # Number of data accesses (Count)
board.cache_hierarchy.dptw_caches.tags.power_state.pwrStateResidencyTicks::UNDEFINED 178687405728                       # Cumulative time (in ticks) in various power states (Tick)
board.cache_hierarchy.iptw_caches.blockedCycles::no_mshrs            0                       # number of cycles access was blocked (Cycle)
board.cache_hierarchy.iptw_caches.blockedCycles::no_targets            0                       # number of cycles access was blocked (Cycle)
board.cache_hierarchy.iptw_caches.blockedCauses::no_mshrs            0                       # number of times access was blocked (Count)
board.cache_hierarchy.iptw_caches.blockedCauses::no_targets            0                       # number of times access was blocked (Count)
board.cache_hierarchy.iptw_caches.avgBlocked::no_mshrs          nan                       # average number of cycles each access was blocked ((Cycle/Count))
board.cache_hierarchy.iptw_caches.avgBlocked::no_targets          nan                       # average number of cycles each access was blocked ((Cycle/Count))
board.cache_hierarchy.iptw_caches.replacements            0                       # number of replacements (Count)
board.cache_hierarchy.iptw_caches.power_state.pwrStateResidencyTicks::UNDEFINED 178687405728                       # Cumulative time (in ticks) in various power states (Tick)
board.cache_hierarchy.iptw_caches.tags.tagsInUse            0                       # Average ticks per tags in use ((Tick/Count))
board.cache_hierarchy.iptw_caches.tags.totalRefs            0                       # Total number of references to valid blocks. (Count)
board.cache_hierarchy.iptw_caches.tags.sampledRefs            0                       # Sample count of references to valid blocks. (Count)
board.cache_hierarchy.iptw_caches.tags.avgRefs          nan                       # Average number of references to valid blocks. ((Count/Count))
board.cache_hierarchy.iptw_caches.tags.warmupTick            0                       # The tick when the warmup percentage was hit. (Tick)
board.cache_hierarchy.iptw_caches.tags.tagAccesses            0                       # Number of tag accesses (Count)
board.cache_hierarchy.iptw_caches.tags.dataAccesses            0                       # Number of data accesses (Count)
board.cache_hierarchy.iptw_caches.tags.power_state.pwrStateResidencyTicks::UNDEFINED 178687405728                       # Cumulative time (in ticks) in various power states (Tick)
board.cache_hierarchy.l1dcaches.demandHits::processor.cores.core.data     67555476                       # number of demand (read+write) hits (Count)
board.cache_hierarchy.l1dcaches.demandHits::total     67555476                       # number of demand (read+write) hits (Count)
board.cache_hierarchy.l1dcaches.overallHits::processor.cores.core.data     67555476                       # number of overall hits (Count)
board.cache_hierarchy.l1dcaches.overallHits::total     67555476                       # number of overall hits (Count)
board.cache_hierarchy.l1dcaches.demandMisses::processor.cores.core.data       764229                       # number of demand (read+write) misses (Count)
board.cache_hierarchy.l1dcaches.demandMisses::total       764229                       # number of demand (read+write) misses (Count)
board.cache_hierarchy.l1dcaches.overallMisses::processor.cores.core.data       764229                       # number of overall misses (Count)
board.cache_hierarchy.l1dcaches.overallMisses::total       764229                       # number of overall misses (Count)
board.cache_hierarchy.l1dcaches.demandMissLatency::processor.cores.core.data  39176088363                       # number of demand (read+write) miss ticks (Tick)
board.cache_hierarchy.l1dcaches.demandMissLatency::total  39176088363                       # number of demand (read+write) miss ticks (Tick)
board.cache_hierarchy.l1dcaches.overallMissLatency::processor.cores.core.data  39176088363                       # number of overall miss ticks (Tick)
board.cache_hierarchy.l1dcaches.overallMissLatency::total  39176088363                       # number of overall miss ticks (Tick)
board.cache_hierarchy.l1dcaches.demandAccesses::processor.cores.core.data     68319705                       # number of demand (read+write) accesses (Count)
board.cache_hierarchy.l1dcaches.demandAccesses::total     68319705                       # number of demand (read+write) accesses (Count)
board.cache_hierarchy.l1dcaches.overallAccesses::processor.cores.core.data     68319705                       # number of overall (read+write) accesses (Count)
board.cache_hierarchy.l1dcaches.overallAccesses::total     68319705                       # number of overall (read+write) accesses (Count)
board.cache_hierarchy.l1dcaches.demandMissRate::processor.cores.core.data     0.011186                       # miss rate for demand accesses (Ratio)
board.cache_hierarchy.l1dcaches.demandMissRate::total     0.011186                       # miss rate for demand accesses (Ratio)
board.cache_hierarchy.l1dcaches.overallMissRate::processor.cores.core.data     0.011186                       # miss rate for overall accesses (Ratio)
board.cache_hierarchy.l1dcaches.overallMissRate::total     0.011186                       # miss rate for overall accesses (Ratio)
board.cache_hierarchy.l1dcaches.demandAvgMissLatency::processor.cores.core.data 51262.237318                       # average overall miss latency in ticks ((Tick/Count))
board.cache_hierarchy.l1dcaches.demandAvgMissLatency::total 51262.237318                       # average overall miss latency in ticks ((Tick/Count))
board.cache_hierarchy.l1dcaches.overallAvgMissLatency::processor.cores.core.data 51262.237318                       # average overall miss latency ((Tick/Count))
board.cache_hierarchy.l1dcaches.overallAvgMissLatency::total 51262.237318                       # average overall miss latency ((Tick/Count))
board.cache_hierarchy.l1dcaches.blockedCycles::no_mshrs            0                       # number of cycles access was blocked (Cycle)
board.cache_hierarchy.l1dcaches.blockedCycles::no_targets            0                       # number of cycles access was blocked (Cycle)
board.cache_hierarchy.l1dcaches.blockedCauses::no_mshrs            0                       # number of times access was blocked (Count)
board.cache_hierarchy.l1dcaches.blockedCauses::no_targets            0                       # number of times access was blocked (Count)
board.cache_hierarchy.l1dcaches.avgBlocked::no_mshrs          nan                       # average number of cycles each access was blocked ((Cycle/Count))
board.cache_hierarchy.l1dcaches.avgBlocked::no_targets          nan                       # average number of cycles each access was blocked ((Cycle/Count))
board.cache_hierarchy.l1dcaches.writebacks::writebacks         8489                       # number of writebacks (Count)
board.cache_hierarchy.l1dcaches.writebacks::total         8489                       # number of writebacks (Count)
board.cache_hierarchy.l1dcaches.demandMshrHits::processor.cores.core.data        10722                       # number of demand (read+write) MSHR hits (Count)
board.cache_hierarchy.l1dcaches.demandMshrHits::total        10722                       # number of demand (read+write) MSHR hits (Count)
board.cache_hierarchy.l1dcaches.overallMshrHits::processor.cores.core.data        10722                       # number of overall MSHR hits (Count)
board.cache_hierarchy.l1dcaches.overallMshrHits::total        10722                       # number of overall MSHR hits (Count)
board.cache_hierarchy.l1dcaches.demandMshrMisses::processor.cores.core.data       753507                       # number of demand (read+write) MSHR misses (Count)
board.cache_hierarchy.l1dcaches.demandMshrMisses::total       753507                       # number of demand (read+write) MSHR misses (Count)
board.cache_hierarchy.l1dcaches.overallMshrMisses::cache_hierarchy.l1dcaches.prefetcher         6768                       # number of overall MSHR misses (Count)
board.cache_hierarchy.l1dcaches.overallMshrMisses::processor.cores.core.data       753507                       # number of overall MSHR misses (Count)
board.cache_hierarchy.l1dcaches.overallMshrMisses::total       760275                       # number of overall MSHR misses (Count)
board.cache_hierarchy.l1dcaches.demandMshrMissLatency::processor.cores.core.data  38668024935                       # number of demand (read+write) MSHR miss ticks (Tick)
board.cache_hierarchy.l1dcaches.demandMshrMissLatency::total  38668024935                       # number of demand (read+write) MSHR miss ticks (Tick)
board.cache_hierarchy.l1dcaches.overallMshrMissLatency::cache_hierarchy.l1dcaches.prefetcher    435018328                       # number of overall MSHR miss ticks (Tick)
board.cache_hierarchy.l1dcaches.overallMshrMissLatency::processor.cores.core.data  38668024935                       # number of overall MSHR miss ticks (Tick)
board.cache_hierarchy.l1dcaches.overallMshrMissLatency::total  39103043263                       # number of overall MSHR miss ticks (Tick)
board.cache_hierarchy.l1dcaches.demandMshrMissRate::processor.cores.core.data     0.011029                       # mshr miss ratio for demand accesses (Ratio)
board.cache_hierarchy.l1dcaches.demandMshrMissRate::total     0.011029                       # mshr miss ratio for demand accesses (Ratio)
board.cache_hierarchy.l1dcaches.overallMshrMissRate::cache_hierarchy.l1dcaches.prefetcher          inf                       # mshr miss ratio for overall accesses (Ratio)
board.cache_hierarchy.l1dcaches.overallMshrMissRate::processor.cores.core.data     0.011029                       # mshr miss ratio for overall accesses (Ratio)
board.cache_hierarchy.l1dcaches.overallMshrMissRate::total     0.011128                       # mshr miss ratio for overall accesses (Ratio)
board.cache_hierarchy.l1dcaches.demandAvgMshrMissLatency::processor.cores.core.data 51317.406388                       # average overall mshr miss latency ((Tick/Count))
board.cache_hierarchy.l1dcaches.demandAvgMshrMissLatency::total 51317.406388                       # average overall mshr miss latency ((Tick/Count))
board.cache_hierarchy.l1dcaches.overallAvgMshrMissLatency::cache_hierarchy.l1dcaches.prefetcher 64275.757683                       # average overall mshr miss latency ((Tick/Count))
board.cache_hierarchy.l1dcaches.overallAvgMshrMissLatency::processor.cores.core.data 51317.406388                       # average overall mshr miss latency ((Tick/Count))
board.cache_hierarchy.l1dcaches.overallAvgMshrMissLatency::total 51432.762176                       # average overall mshr miss latency ((Tick/Count))
board.cache_hierarchy.l1dcaches.replacements       520667                       # number of replacements (Count)
board.cache_hierarchy.l1dcaches.CleanInvalidReq.missLatency::processor.cores.core.data   1831228605                       # number of CleanInvalidReq miss ticks (Tick)
board.cache_hierarchy.l1dcaches.CleanInvalidReq.missLatency::total   1831228605                       # number of CleanInvalidReq miss ticks (Tick)
board.cache_hierarchy.l1dcaches.CleanInvalidReq.avgMissLatency::processor.cores.core.data          inf                       # average CleanInvalidReq miss latency ((Tick/Count))
board.cache_hierarchy.l1dcaches.CleanInvalidReq.avgMissLatency::total          inf                       # average CleanInvalidReq miss latency ((Tick/Count))
board.cache_hierarchy.l1dcaches.CleanInvalidReq.mshrMisses::processor.cores.core.data      5402800                       # number of CleanInvalidReq MSHR misses (Count)
board.cache_hierarchy.l1dcaches.CleanInvalidReq.mshrMisses::total      5402800                       # number of CleanInvalidReq MSHR misses (Count)
board.cache_hierarchy.l1dcaches.CleanInvalidReq.mshrMissLatency::processor.cores.core.data  39580912800                       # number of CleanInvalidReq MSHR miss ticks (Tick)
board.cache_hierarchy.l1dcaches.CleanInvalidReq.mshrMissLatency::total  39580912800                       # number of CleanInvalidReq MSHR miss ticks (Tick)
board.cache_hierarchy.l1dcaches.CleanInvalidReq.mshrMissRate::processor.cores.core.data          inf                       # mshr miss rate for CleanInvalidReq accesses (Ratio)
board.cache_hierarchy.l1dcaches.CleanInvalidReq.mshrMissRate::total          inf                       # mshr miss rate for CleanInvalidReq accesses (Ratio)
board.cache_hierarchy.l1dcaches.CleanInvalidReq.avgMshrMissLatency::processor.cores.core.data         7326                       # average CleanInvalidReq mshr miss latency ((Tick/Count))
board.cache_hierarchy.l1dcaches.CleanInvalidReq.avgMshrMissLatency::total         7326                       # average CleanInvalidReq mshr miss latency ((Tick/Count))
board.cache_hierarchy.l1dcaches.HardPFReq.mshrMisses::cache_hierarchy.l1dcaches.prefetcher         6768                       # number of HardPFReq MSHR misses (Count)
board.cache_hierarchy.l1dcaches.HardPFReq.mshrMisses::total         6768                       # number of HardPFReq MSHR misses (Count)
board.cache_hierarchy.l1dcaches.HardPFReq.mshrMissLatency::cache_hierarchy.l1dcaches.prefetcher    435018328                       # number of HardPFReq MSHR miss ticks (Tick)
board.cache_hierarchy.l1dcaches.HardPFReq.mshrMissLatency::total    435018328                       # number of HardPFReq MSHR miss ticks (Tick)
board.cache_hierarchy.l1dcaches.HardPFReq.mshrMissRate::cache_hierarchy.l1dcaches.prefetcher          inf                       # mshr miss rate for HardPFReq accesses (Ratio)
board.cache_hierarchy.l1dcaches.HardPFReq.mshrMissRate::total          inf                       # mshr miss rate for HardPFReq accesses (Ratio)
board.cache_hierarchy.l1dcaches.HardPFReq.avgMshrMissLatency::cache_hierarchy.l1dcaches.prefetcher 64275.757683                       # average HardPFReq mshr miss latency ((Tick/Count))
board.cache_hierarchy.l1dcaches.HardPFReq.avgMshrMissLatency::total 64275.757683                       # average HardPFReq mshr miss latency ((Tick/Count))
board.cache_hierarchy.l1dcaches.ReadReq.hits::processor.cores.core.data     41870088                       # number of ReadReq hits (Count)
board.cache_hierarchy.l1dcaches.ReadReq.hits::total     41870088                       # number of ReadReq hits (Count)
board.cache_hierarchy.l1dcaches.ReadReq.misses::processor.cores.core.data       762759                       # number of ReadReq misses (Count)
board.cache_hierarchy.l1dcaches.ReadReq.misses::total       762759                       # number of ReadReq misses (Count)
board.cache_hierarchy.l1dcaches.ReadReq.missLatency::processor.cores.core.data  39119182326                       # number of ReadReq miss ticks (Tick)
board.cache_hierarchy.l1dcaches.ReadReq.missLatency::total  39119182326                       # number of ReadReq miss ticks (Tick)
board.cache_hierarchy.l1dcaches.ReadReq.accesses::processor.cores.core.data     42632847                       # number of ReadReq accesses(hits+misses) (Count)
board.cache_hierarchy.l1dcaches.ReadReq.accesses::total     42632847                       # number of ReadReq accesses(hits+misses) (Count)
board.cache_hierarchy.l1dcaches.ReadReq.missRate::processor.cores.core.data     0.017891                       # miss rate for ReadReq accesses (Ratio)
board.cache_hierarchy.l1dcaches.ReadReq.missRate::total     0.017891                       # miss rate for ReadReq accesses (Ratio)
board.cache_hierarchy.l1dcaches.ReadReq.avgMissLatency::processor.cores.core.data 51286.425104                       # average ReadReq miss latency ((Tick/Count))
board.cache_hierarchy.l1dcaches.ReadReq.avgMissLatency::total 51286.425104                       # average ReadReq miss latency ((Tick/Count))
board.cache_hierarchy.l1dcaches.ReadReq.mshrHits::processor.cores.core.data        10672                       # number of ReadReq MSHR hits (Count)
board.cache_hierarchy.l1dcaches.ReadReq.mshrHits::total        10672                       # number of ReadReq MSHR hits (Count)
board.cache_hierarchy.l1dcaches.ReadReq.mshrMisses::processor.cores.core.data       752087                       # number of ReadReq MSHR misses (Count)
board.cache_hierarchy.l1dcaches.ReadReq.mshrMisses::total       752087                       # number of ReadReq MSHR misses (Count)
board.cache_hierarchy.l1dcaches.ReadReq.mshrMissLatency::processor.cores.core.data  38612792556                       # number of ReadReq MSHR miss ticks (Tick)
board.cache_hierarchy.l1dcaches.ReadReq.mshrMissLatency::total  38612792556                       # number of ReadReq MSHR miss ticks (Tick)
board.cache_hierarchy.l1dcaches.ReadReq.mshrMissRate::processor.cores.core.data     0.017641                       # mshr miss rate for ReadReq accesses (Ratio)
board.cache_hierarchy.l1dcaches.ReadReq.mshrMissRate::total     0.017641                       # mshr miss rate for ReadReq accesses (Ratio)
board.cache_hierarchy.l1dcaches.ReadReq.avgMshrMissLatency::processor.cores.core.data 51340.858911                       # average ReadReq mshr miss latency ((Tick/Count))
board.cache_hierarchy.l1dcaches.ReadReq.avgMshrMissLatency::total 51340.858911                       # average ReadReq mshr miss latency ((Tick/Count))
board.cache_hierarchy.l1dcaches.WriteReq.hits::processor.cores.core.data     25685388                       # number of WriteReq hits (Count)
board.cache_hierarchy.l1dcaches.WriteReq.hits::total     25685388                       # number of WriteReq hits (Count)
board.cache_hierarchy.l1dcaches.WriteReq.misses::processor.cores.core.data         1470                       # number of WriteReq misses (Count)
board.cache_hierarchy.l1dcaches.WriteReq.misses::total         1470                       # number of WriteReq misses (Count)
board.cache_hierarchy.l1dcaches.WriteReq.missLatency::processor.cores.core.data     56906037                       # number of WriteReq miss ticks (Tick)
board.cache_hierarchy.l1dcaches.WriteReq.missLatency::total     56906037                       # number of WriteReq miss ticks (Tick)
board.cache_hierarchy.l1dcaches.WriteReq.accesses::processor.cores.core.data     25686858                       # number of WriteReq accesses(hits+misses) (Count)
board.cache_hierarchy.l1dcaches.WriteReq.accesses::total     25686858                       # number of WriteReq accesses(hits+misses) (Count)
board.cache_hierarchy.l1dcaches.WriteReq.missRate::processor.cores.core.data     0.000057                       # miss rate for WriteReq accesses (Ratio)
board.cache_hierarchy.l1dcaches.WriteReq.missRate::total     0.000057                       # miss rate for WriteReq accesses (Ratio)
board.cache_hierarchy.l1dcaches.WriteReq.avgMissLatency::processor.cores.core.data 38711.589796                       # average WriteReq miss latency ((Tick/Count))
board.cache_hierarchy.l1dcaches.WriteReq.avgMissLatency::total 38711.589796                       # average WriteReq miss latency ((Tick/Count))
board.cache_hierarchy.l1dcaches.WriteReq.mshrHits::processor.cores.core.data           50                       # number of WriteReq MSHR hits (Count)
board.cache_hierarchy.l1dcaches.WriteReq.mshrHits::total           50                       # number of WriteReq MSHR hits (Count)
board.cache_hierarchy.l1dcaches.WriteReq.mshrMisses::processor.cores.core.data         1420                       # number of WriteReq MSHR misses (Count)
board.cache_hierarchy.l1dcaches.WriteReq.mshrMisses::total         1420                       # number of WriteReq MSHR misses (Count)
board.cache_hierarchy.l1dcaches.WriteReq.mshrMissLatency::processor.cores.core.data     55232379                       # number of WriteReq MSHR miss ticks (Tick)
board.cache_hierarchy.l1dcaches.WriteReq.mshrMissLatency::total     55232379                       # number of WriteReq MSHR miss ticks (Tick)
board.cache_hierarchy.l1dcaches.WriteReq.mshrMissRate::processor.cores.core.data     0.000055                       # mshr miss rate for WriteReq accesses (Ratio)
board.cache_hierarchy.l1dcaches.WriteReq.mshrMissRate::total     0.000055                       # mshr miss rate for WriteReq accesses (Ratio)
board.cache_hierarchy.l1dcaches.WriteReq.avgMshrMissLatency::processor.cores.core.data 38896.041549                       # average WriteReq mshr miss latency ((Tick/Count))
board.cache_hierarchy.l1dcaches.WriteReq.avgMshrMissLatency::total 38896.041549                       # average WriteReq mshr miss latency ((Tick/Count))
board.cache_hierarchy.l1dcaches.power_state.pwrStateResidencyTicks::UNDEFINED 178687405728                       # Cumulative time (in ticks) in various power states (Tick)
board.cache_hierarchy.l1dcaches.prefetcher.demandMshrMisses       753507                       # demands not covered by prefetchs (Count)
board.cache_hierarchy.l1dcaches.prefetcher.pfIssued        13680                       # number of hwpf issued (Count)
board.cache_hierarchy.l1dcaches.prefetcher.pfUnused         3438                       # number of HardPF blocks evicted w/o reference (Count)
board.cache_hierarchy.l1dcaches.prefetcher.pfUseful         2935                       # number of useful prefetch (Count)
board.cache_hierarchy.l1dcaches.prefetcher.pfUsefulButMiss            0                       # number of hit on prefetch but cache block is not in an usable state (Count)
board.cache_hierarchy.l1dcaches.prefetcher.accuracy     0.214547                       # accuracy of the prefetcher (Count)
board.cache_hierarchy.l1dcaches.prefetcher.coverage     0.003880                       # coverage brought by this prefetcher (Count)
board.cache_hierarchy.l1dcaches.prefetcher.pfHitInCache         2632                       # number of prefetches hitting in cache (Count)
board.cache_hierarchy.l1dcaches.prefetcher.pfHitInMSHR         4280                       # number of prefetches hitting in a MSHR (Count)
board.cache_hierarchy.l1dcaches.prefetcher.pfHitInWB            0                       # number of prefetches hit in the Write Buffer (Count)
board.cache_hierarchy.l1dcaches.prefetcher.pfLate         6912                       # number of late prefetches (hitting in cache, MSHR or WB) (Count)
board.cache_hierarchy.l1dcaches.prefetcher.pfIdentified        19294                       # number of prefetch candidates identified (Count)
board.cache_hierarchy.l1dcaches.prefetcher.pfBufferHit         4286                       # number of redundant prefetches already in prefetch queue (Count)
board.cache_hierarchy.l1dcaches.prefetcher.pfInCache            0                       # number of redundant prefetches already in cache/mshr dropped (Count)
board.cache_hierarchy.l1dcaches.prefetcher.pfRemovedDemand           83                       # number of prefetches dropped due to a demand for the same address (Count)
board.cache_hierarchy.l1dcaches.prefetcher.pfRemovedFull            0                       # number of prefetches dropped due to prefetch queue size (Count)
board.cache_hierarchy.l1dcaches.prefetcher.pfSpanPage         4026                       # number of prefetches that crossed the page (Count)
board.cache_hierarchy.l1dcaches.prefetcher.pfUsefulSpanPage            0                       # number of prefetches that is useful and crossed the page (Count)
board.cache_hierarchy.l1dcaches.prefetcher.power_state.pwrStateResidencyTicks::UNDEFINED 178687405728                       # Cumulative time (in ticks) in various power states (Tick)
board.cache_hierarchy.l1dcaches.tags.tagsInUse   480.365931                       # Average ticks per tags in use ((Tick/Count))
board.cache_hierarchy.l1dcaches.tags.totalRefs     68554846                       # Total number of references to valid blocks. (Count)
board.cache_hierarchy.l1dcaches.tags.sampledRefs       760274                       # Sample count of references to valid blocks. (Count)
board.cache_hierarchy.l1dcaches.tags.avgRefs    90.171236                       # Average number of references to valid blocks. ((Count/Count))
board.cache_hierarchy.l1dcaches.tags.warmupTick       134865                       # The tick when the warmup percentage was hit. (Tick)
board.cache_hierarchy.l1dcaches.tags.occupancies::cache_hierarchy.l1dcaches.prefetcher   203.523843                       # Average occupied blocks per tick, per requestor ((Count/Tick))
board.cache_hierarchy.l1dcaches.tags.occupancies::processor.cores.core.data   276.842088                       # Average occupied blocks per tick, per requestor ((Count/Tick))
board.cache_hierarchy.l1dcaches.tags.avgOccs::cache_hierarchy.l1dcaches.prefetcher     0.397508                       # Average percentage of cache occupancy ((Ratio/Tick))
board.cache_hierarchy.l1dcaches.tags.avgOccs::processor.cores.core.data     0.540707                       # Average percentage of cache occupancy ((Ratio/Tick))
board.cache_hierarchy.l1dcaches.tags.avgOccs::total     0.938215                       # Average percentage of cache occupancy ((Ratio/Tick))
board.cache_hierarchy.l1dcaches.tags.occupanciesTaskId::1022          186                       # Occupied blocks per task id (Count)
board.cache_hierarchy.l1dcaches.tags.occupanciesTaskId::1024          326                       # Occupied blocks per task id (Count)
board.cache_hierarchy.l1dcaches.tags.ageTaskId_1022::4          186                       # Occupied blocks per task id, per block age (Count)
board.cache_hierarchy.l1dcaches.tags.ageTaskId_1024::0           94                       # Occupied blocks per task id, per block age (Count)
board.cache_hierarchy.l1dcaches.tags.ageTaskId_1024::1            6                       # Occupied blocks per task id, per block age (Count)
board.cache_hierarchy.l1dcaches.tags.ageTaskId_1024::4          226                       # Occupied blocks per task id, per block age (Count)
board.cache_hierarchy.l1dcaches.tags.ratioOccsTaskId::1022     0.363281                       # Ratio of occupied blocks and all blocks, per task id (Ratio)
board.cache_hierarchy.l1dcaches.tags.ratioOccsTaskId::1024     0.636719                       # Ratio of occupied blocks and all blocks, per task id (Ratio)
board.cache_hierarchy.l1dcaches.tags.tagAccesses    590540314                       # Number of tag accesses (Count)
board.cache_hierarchy.l1dcaches.tags.dataAccesses    590540314                       # Number of data accesses (Count)
board.cache_hierarchy.l1dcaches.tags.power_state.pwrStateResidencyTicks::UNDEFINED 178687405728                       # Cumulative time (in ticks) in various power states (Tick)
board.cache_hierarchy.l1icaches.demandHits::processor.cores.core.inst     94609928                       # number of demand (read+write) hits (Count)
board.cache_hierarchy.l1icaches.demandHits::total     94609928                       # number of demand (read+write) hits (Count)
board.cache_hierarchy.l1icaches.overallHits::processor.cores.core.inst     94609928                       # number of overall hits (Count)
board.cache_hierarchy.l1icaches.overallHits::total     94609928                       # number of overall hits (Count)
board.cache_hierarchy.l1icaches.demandMisses::processor.cores.core.inst         1756                       # number of demand (read+write) misses (Count)
board.cache_hierarchy.l1icaches.demandMisses::total         1756                       # number of demand (read+write) misses (Count)
board.cache_hierarchy.l1icaches.overallMisses::processor.cores.core.inst         1756                       # number of overall misses (Count)
board.cache_hierarchy.l1icaches.overallMisses::total         1756                       # number of overall misses (Count)
board.cache_hierarchy.l1icaches.demandMissLatency::processor.cores.core.inst     90565344                       # number of demand (read+write) miss ticks (Tick)
board.cache_hierarchy.l1icaches.demandMissLatency::total     90565344                       # number of demand (read+write) miss ticks (Tick)
board.cache_hierarchy.l1icaches.overallMissLatency::processor.cores.core.inst     90565344                       # number of overall miss ticks (Tick)
board.cache_hierarchy.l1icaches.overallMissLatency::total     90565344                       # number of overall miss ticks (Tick)
board.cache_hierarchy.l1icaches.demandAccesses::processor.cores.core.inst     94611684                       # number of demand (read+write) accesses (Count)
board.cache_hierarchy.l1icaches.demandAccesses::total     94611684                       # number of demand (read+write) accesses (Count)
board.cache_hierarchy.l1icaches.overallAccesses::processor.cores.core.inst     94611684                       # number of overall (read+write) accesses (Count)
board.cache_hierarchy.l1icaches.overallAccesses::total     94611684                       # number of overall (read+write) accesses (Count)
board.cache_hierarchy.l1icaches.demandMissRate::processor.cores.core.inst     0.000019                       # miss rate for demand accesses (Ratio)
board.cache_hierarchy.l1icaches.demandMissRate::total     0.000019                       # miss rate for demand accesses (Ratio)
board.cache_hierarchy.l1icaches.overallMissRate::processor.cores.core.inst     0.000019                       # miss rate for overall accesses (Ratio)
board.cache_hierarchy.l1icaches.overallMissRate::total     0.000019                       # miss rate for overall accesses (Ratio)
board.cache_hierarchy.l1icaches.demandAvgMissLatency::processor.cores.core.inst 51574.797267                       # average overall miss latency in ticks ((Tick/Count))
board.cache_hierarchy.l1icaches.demandAvgMissLatency::total 51574.797267                       # average overall miss latency in ticks ((Tick/Count))
board.cache_hierarchy.l1icaches.overallAvgMissLatency::processor.cores.core.inst 51574.797267                       # average overall miss latency ((Tick/Count))
board.cache_hierarchy.l1icaches.overallAvgMissLatency::total 51574.797267                       # average overall miss latency ((Tick/Count))
board.cache_hierarchy.l1icaches.blockedCycles::no_mshrs            0                       # number of cycles access was blocked (Cycle)
board.cache_hierarchy.l1icaches.blockedCycles::no_targets            0                       # number of cycles access was blocked (Cycle)
board.cache_hierarchy.l1icaches.blockedCauses::no_mshrs            0                       # number of times access was blocked (Count)
board.cache_hierarchy.l1icaches.blockedCauses::no_targets            0                       # number of times access was blocked (Count)
board.cache_hierarchy.l1icaches.avgBlocked::no_mshrs          nan                       # average number of cycles each access was blocked ((Cycle/Count))
board.cache_hierarchy.l1icaches.avgBlocked::no_targets          nan                       # average number of cycles each access was blocked ((Cycle/Count))
board.cache_hierarchy.l1icaches.writebacks::writebacks          817                       # number of writebacks (Count)
board.cache_hierarchy.l1icaches.writebacks::total          817                       # number of writebacks (Count)
board.cache_hierarchy.l1icaches.demandMshrHits::processor.cores.core.inst          425                       # number of demand (read+write) MSHR hits (Count)
board.cache_hierarchy.l1icaches.demandMshrHits::total          425                       # number of demand (read+write) MSHR hits (Count)
board.cache_hierarchy.l1icaches.overallMshrHits::processor.cores.core.inst          425                       # number of overall MSHR hits (Count)
board.cache_hierarchy.l1icaches.overallMshrHits::total          425                       # number of overall MSHR hits (Count)
board.cache_hierarchy.l1icaches.demandMshrMisses::processor.cores.core.inst         1331                       # number of demand (read+write) MSHR misses (Count)
board.cache_hierarchy.l1icaches.demandMshrMisses::total         1331                       # number of demand (read+write) MSHR misses (Count)
board.cache_hierarchy.l1icaches.overallMshrMisses::processor.cores.core.inst         1331                       # number of overall MSHR misses (Count)
board.cache_hierarchy.l1icaches.overallMshrMisses::total         1331                       # number of overall MSHR misses (Count)
board.cache_hierarchy.l1icaches.demandMshrMissLatency::processor.cores.core.inst     71256006                       # number of demand (read+write) MSHR miss ticks (Tick)
board.cache_hierarchy.l1icaches.demandMshrMissLatency::total     71256006                       # number of demand (read+write) MSHR miss ticks (Tick)
board.cache_hierarchy.l1icaches.overallMshrMissLatency::processor.cores.core.inst     71256006                       # number of overall MSHR miss ticks (Tick)
board.cache_hierarchy.l1icaches.overallMshrMissLatency::total     71256006                       # number of overall MSHR miss ticks (Tick)
board.cache_hierarchy.l1icaches.demandMshrMissRate::processor.cores.core.inst     0.000014                       # mshr miss ratio for demand accesses (Ratio)
board.cache_hierarchy.l1icaches.demandMshrMissRate::total     0.000014                       # mshr miss ratio for demand accesses (Ratio)
board.cache_hierarchy.l1icaches.overallMshrMissRate::processor.cores.core.inst     0.000014                       # mshr miss ratio for overall accesses (Ratio)
board.cache_hierarchy.l1icaches.overallMshrMissRate::total     0.000014                       # mshr miss ratio for overall accesses (Ratio)
board.cache_hierarchy.l1icaches.demandAvgMshrMissLatency::processor.cores.core.inst 53535.691961                       # average overall mshr miss latency ((Tick/Count))
board.cache_hierarchy.l1icaches.demandAvgMshrMissLatency::total 53535.691961                       # average overall mshr miss latency ((Tick/Count))
board.cache_hierarchy.l1icaches.overallAvgMshrMissLatency::processor.cores.core.inst 53535.691961                       # average overall mshr miss latency ((Tick/Count))
board.cache_hierarchy.l1icaches.overallAvgMshrMissLatency::total 53535.691961                       # average overall mshr miss latency ((Tick/Count))
board.cache_hierarchy.l1icaches.replacements          817                       # number of replacements (Count)
board.cache_hierarchy.l1icaches.ReadReq.hits::processor.cores.core.inst     94609928                       # number of ReadReq hits (Count)
board.cache_hierarchy.l1icaches.ReadReq.hits::total     94609928                       # number of ReadReq hits (Count)
board.cache_hierarchy.l1icaches.ReadReq.misses::processor.cores.core.inst         1756                       # number of ReadReq misses (Count)
board.cache_hierarchy.l1icaches.ReadReq.misses::total         1756                       # number of ReadReq misses (Count)
board.cache_hierarchy.l1icaches.ReadReq.missLatency::processor.cores.core.inst     90565344                       # number of ReadReq miss ticks (Tick)
board.cache_hierarchy.l1icaches.ReadReq.missLatency::total     90565344                       # number of ReadReq miss ticks (Tick)
board.cache_hierarchy.l1icaches.ReadReq.accesses::processor.cores.core.inst     94611684                       # number of ReadReq accesses(hits+misses) (Count)
board.cache_hierarchy.l1icaches.ReadReq.accesses::total     94611684                       # number of ReadReq accesses(hits+misses) (Count)
board.cache_hierarchy.l1icaches.ReadReq.missRate::processor.cores.core.inst     0.000019                       # miss rate for ReadReq accesses (Ratio)
board.cache_hierarchy.l1icaches.ReadReq.missRate::total     0.000019                       # miss rate for ReadReq accesses (Ratio)
board.cache_hierarchy.l1icaches.ReadReq.avgMissLatency::processor.cores.core.inst 51574.797267                       # average ReadReq miss latency ((Tick/Count))
board.cache_hierarchy.l1icaches.ReadReq.avgMissLatency::total 51574.797267                       # average ReadReq miss latency ((Tick/Count))
board.cache_hierarchy.l1icaches.ReadReq.mshrHits::processor.cores.core.inst          425                       # number of ReadReq MSHR hits (Count)
board.cache_hierarchy.l1icaches.ReadReq.mshrHits::total          425                       # number of ReadReq MSHR hits (Count)
board.cache_hierarchy.l1icaches.ReadReq.mshrMisses::processor.cores.core.inst         1331                       # number of ReadReq MSHR misses (Count)
board.cache_hierarchy.l1icaches.ReadReq.mshrMisses::total         1331                       # number of ReadReq MSHR misses (Count)
board.cache_hierarchy.l1icaches.ReadReq.mshrMissLatency::processor.cores.core.inst     71256006                       # number of ReadReq MSHR miss ticks (Tick)
board.cache_hierarchy.l1icaches.ReadReq.mshrMissLatency::total     71256006                       # number of ReadReq MSHR miss ticks (Tick)
board.cache_hierarchy.l1icaches.ReadReq.mshrMissRate::processor.cores.core.inst     0.000014                       # mshr miss rate for ReadReq accesses (Ratio)
board.cache_hierarchy.l1icaches.ReadReq.mshrMissRate::total     0.000014                       # mshr miss rate for ReadReq accesses (Ratio)
board.cache_hierarchy.l1icaches.ReadReq.avgMshrMissLatency::processor.cores.core.inst 53535.691961                       # average ReadReq mshr miss latency ((Tick/Count))
board.cache_hierarchy.l1icaches.ReadReq.avgMshrMissLatency::total 53535.691961                       # average ReadReq mshr miss latency ((Tick/Count))
board.cache_hierarchy.l1icaches.power_state.pwrStateResidencyTicks::UNDEFINED 178687405728                       # Cumulative time (in ticks) in various power states (Tick)
board.cache_hierarchy.l1icaches.prefetcher.demandMshrMisses         1331                       # demands not covered by prefetchs (Count)
board.cache_hierarchy.l1icaches.prefetcher.pfIssued            0                       # number of hwpf issued (Count)
board.cache_hierarchy.l1icaches.prefetcher.pfUseful            0                       # number of useful prefetch (Count)
board.cache_hierarchy.l1icaches.prefetcher.pfUsefulButMiss            0                       # number of hit on prefetch but cache block is not in an usable state (Count)
board.cache_hierarchy.l1icaches.prefetcher.accuracy          nan                       # accuracy of the prefetcher (Count)
board.cache_hierarchy.l1icaches.prefetcher.coverage            0                       # coverage brought by this prefetcher (Count)
board.cache_hierarchy.l1icaches.prefetcher.pfHitInCache            0                       # number of prefetches hitting in cache (Count)
board.cache_hierarchy.l1icaches.prefetcher.pfHitInMSHR            0                       # number of prefetches hitting in a MSHR (Count)
board.cache_hierarchy.l1icaches.prefetcher.pfHitInWB            0                       # number of prefetches hit in the Write Buffer (Count)
board.cache_hierarchy.l1icaches.prefetcher.pfLate            0                       # number of late prefetches (hitting in cache, MSHR or WB) (Count)
board.cache_hierarchy.l1icaches.prefetcher.pfIdentified            0                       # number of prefetch candidates identified (Count)
board.cache_hierarchy.l1icaches.prefetcher.pfBufferHit            0                       # number of redundant prefetches already in prefetch queue (Count)
board.cache_hierarchy.l1icaches.prefetcher.pfInCache            0                       # number of redundant prefetches already in cache/mshr dropped (Count)
board.cache_hierarchy.l1icaches.prefetcher.pfRemovedDemand            0                       # number of prefetches dropped due to a demand for the same address (Count)
board.cache_hierarchy.l1icaches.prefetcher.pfRemovedFull            0                       # number of prefetches dropped due to prefetch queue size (Count)
board.cache_hierarchy.l1icaches.prefetcher.pfSpanPage            0                       # number of prefetches that crossed the page (Count)
board.cache_hierarchy.l1icaches.prefetcher.pfUsefulSpanPage            0                       # number of prefetches that is useful and crossed the page (Count)
board.cache_hierarchy.l1icaches.prefetcher.power_state.pwrStateResidencyTicks::UNDEFINED 178687405728                       # Cumulative time (in ticks) in various power states (Tick)
board.cache_hierarchy.l1icaches.tags.tagsInUse   511.959687                       # Average ticks per tags in use ((Tick/Count))
board.cache_hierarchy.l1icaches.tags.totalRefs     94611258                       # Total number of references to valid blocks. (Count)
board.cache_hierarchy.l1icaches.tags.sampledRefs         1330                       # Sample count of references to valid blocks. (Count)
board.cache_hierarchy.l1icaches.tags.avgRefs 71136.284211                       # Average number of references to valid blocks. ((Count/Count))
board.cache_hierarchy.l1icaches.tags.warmupTick        70263                       # The tick when the warmup percentage was hit. (Tick)
board.cache_hierarchy.l1icaches.tags.occupancies::processor.cores.core.inst   511.959687                       # Average occupied blocks per tick, per requestor ((Count/Tick))
board.cache_hierarchy.l1icaches.tags.avgOccs::processor.cores.core.inst     0.999921                       # Average percentage of cache occupancy ((Ratio/Tick))
board.cache_hierarchy.l1icaches.tags.avgOccs::total     0.999921                       # Average percentage of cache occupancy ((Ratio/Tick))
board.cache_hierarchy.l1icaches.tags.occupanciesTaskId::1024          512                       # Occupied blocks per task id (Count)
board.cache_hierarchy.l1icaches.tags.ageTaskId_1024::0           99                       # Occupied blocks per task id, per block age (Count)
board.cache_hierarchy.l1icaches.tags.ageTaskId_1024::4          413                       # Occupied blocks per task id, per block age (Count)
board.cache_hierarchy.l1icaches.tags.ratioOccsTaskId::1024            1                       # Ratio of occupied blocks and all blocks, per task id (Ratio)
board.cache_hierarchy.l1icaches.tags.tagAccesses    756894802                       # Number of tag accesses (Count)
board.cache_hierarchy.l1icaches.tags.dataAccesses    756894802                       # Number of data accesses (Count)
board.cache_hierarchy.l1icaches.tags.power_state.pwrStateResidencyTicks::UNDEFINED 178687405728                       # Cumulative time (in ticks) in various power states (Tick)
board.cache_hierarchy.l2buses.transDist::ReadResp       760185                       # Transaction distribution (Count)
board.cache_hierarchy.l2buses.transDist::WritebackDirty         9043                       # Transaction distribution (Count)
board.cache_hierarchy.l2buses.transDist::WritebackClean          817                       # Transaction distribution (Count)
board.cache_hierarchy.l2buses.transDist::WriteClean         1896                       # Transaction distribution (Count)
board.cache_hierarchy.l2buses.transDist::CleanEvict       513952                       # Transaction distribution (Count)
board.cache_hierarchy.l2buses.transDist::HardPFReq        10458                       # Transaction distribution (Count)
board.cache_hierarchy.l2buses.transDist::UpgradeReq            1                       # Transaction distribution (Count)
board.cache_hierarchy.l2buses.transDist::UpgradeResp            1                       # Transaction distribution (Count)
board.cache_hierarchy.l2buses.transDist::ReadExReq         1419                       # Transaction distribution (Count)
board.cache_hierarchy.l2buses.transDist::ReadExResp         1419                       # Transaction distribution (Count)
board.cache_hierarchy.l2buses.transDist::ReadSharedReq       760186                       # Transaction distribution (Count)
board.cache_hierarchy.l2buses.transDist::CleanInvalidReq      5402800                       # Transaction distribution (Count)
board.cache_hierarchy.l2buses.transDist::CleanInvalidResp      5402800                       # Transaction distribution (Count)
board.cache_hierarchy.l2buses.pktCount_board.cache_hierarchy.l1icaches.mem_side_port::board.cache_hierarchy.l2caches.cpu_side_port         3477                       # Packet count per connected requestor and responder (Count)
board.cache_hierarchy.l2buses.pktCount_board.cache_hierarchy.l1dcaches.mem_side_port::board.cache_hierarchy.l2caches.cpu_side_port     12846817                       # Packet count per connected requestor and responder (Count)
board.cache_hierarchy.l2buses.pktCount::total     12850294                       # Packet count per connected requestor and responder (Count)
board.cache_hierarchy.l2buses.pktSize_board.cache_hierarchy.l1icaches.mem_side_port::board.cache_hierarchy.l2caches.cpu_side_port       137344                       # Cumulative packet size per connected requestor and responder (Byte)
board.cache_hierarchy.l2buses.pktSize_board.cache_hierarchy.l1dcaches.mem_side_port::board.cache_hierarchy.l2caches.cpu_side_port     49200832                       # Cumulative packet size per connected requestor and responder (Byte)
board.cache_hierarchy.l2buses.pktSize::total     49338176                       # Cumulative packet size per connected requestor and responder (Byte)
board.cache_hierarchy.l2buses.snoops            14683                       # Total snoops (Count)
board.cache_hierarchy.l2buses.snoopTraffic       156864                       # Total snoop traffic (Byte)
board.cache_hierarchy.l2buses.snoopFanout::samples      6179088                       # Request fanout histogram (Count)
board.cache_hierarchy.l2buses.snoopFanout::mean     0.000442                       # Request fanout histogram (Count)
board.cache_hierarchy.l2buses.snoopFanout::stdev     0.021019                       # Request fanout histogram (Count)
board.cache_hierarchy.l2buses.snoopFanout::underflows            0      0.00%      0.00% # Request fanout histogram (Count)
board.cache_hierarchy.l2buses.snoopFanout::0      6176357     99.96%     99.96% # Request fanout histogram (Count)
board.cache_hierarchy.l2buses.snoopFanout::1         2731      0.04%    100.00% # Request fanout histogram (Count)
board.cache_hierarchy.l2buses.snoopFanout::2            0      0.00%    100.00% # Request fanout histogram (Count)
board.cache_hierarchy.l2buses.snoopFanout::3            0      0.00%    100.00% # Request fanout histogram (Count)
board.cache_hierarchy.l2buses.snoopFanout::4            0      0.00%    100.00% # Request fanout histogram (Count)
board.cache_hierarchy.l2buses.snoopFanout::overflows            0      0.00%    100.00% # Request fanout histogram (Count)
board.cache_hierarchy.l2buses.snoopFanout::min_value            0                       # Request fanout histogram (Count)
board.cache_hierarchy.l2buses.snoopFanout::max_value            1                       # Request fanout histogram (Count)
board.cache_hierarchy.l2buses.snoopFanout::total      6179088                       # Request fanout histogram (Count)
board.cache_hierarchy.l2buses.power_state.pwrStateResidencyTicks::UNDEFINED 178687405728                       # Cumulative time (in ticks) in various power states (Tick)
board.cache_hierarchy.l2buses.reqLayer0.occupancy   2232703632                       # Layer occupancy (ticks) (Tick)
board.cache_hierarchy.l2buses.reqLayer0.utilization          0.0                       # Layer utilization (Ratio)
board.cache_hierarchy.l2buses.respLayer0.occupancy      1329334                       # Layer occupancy (ticks) (Tick)
board.cache_hierarchy.l2buses.respLayer0.utilization          0.0                       # Layer utilization (Ratio)
board.cache_hierarchy.l2buses.respLayer1.occupancy   2558646459                       # Layer occupancy (ticks) (Tick)
board.cache_hierarchy.l2buses.respLayer1.utilization          0.0                       # Layer utilization (Ratio)
board.cache_hierarchy.l2buses.snoop_filter.totRequests      6685891                       # Total number of requests made to the snoop filter. (Count)
board.cache_hierarchy.l2buses.snoop_filter.hitSingleRequests       760584                       # Number of requests hitting in the snoop filter with a single holder of the requested data. (Count)
board.cache_hierarchy.l2buses.snoop_filter.hitMultiRequests            6                       # Number of requests hitting in the snoop filter with multiple (>1) holders of the requested data. (Count)
board.cache_hierarchy.l2buses.snoop_filter.totSnoops         2721                       # Total number of snoops made to the snoop filter. (Count)
board.cache_hierarchy.l2buses.snoop_filter.hitSingleSnoops         2721                       # Number of snoops hitting in the snoop filter with a single holder of the requested data. (Count)
board.cache_hierarchy.l2buses.snoop_filter.hitMultiSnoops            0                       # Number of snoops hitting in the snoop filter with multiple (>1) holders of the requested data. (Count)
board.cache_hierarchy.l2caches.demandHits::cache_hierarchy.l1dcaches.prefetcher          653                       # number of demand (read+write) hits (Count)
board.cache_hierarchy.l2caches.demandHits::processor.cores.core.inst           45                       # number of demand (read+write) hits (Count)
board.cache_hierarchy.l2caches.demandHits::processor.cores.core.data        14082                       # number of demand (read+write) hits (Count)
board.cache_hierarchy.l2caches.demandHits::total        14780                       # number of demand (read+write) hits (Count)
board.cache_hierarchy.l2caches.overallHits::cache_hierarchy.l1dcaches.prefetcher          653                       # number of overall hits (Count)
board.cache_hierarchy.l2caches.overallHits::processor.cores.core.inst           45                       # number of overall hits (Count)
board.cache_hierarchy.l2caches.overallHits::processor.cores.core.data        14082                       # number of overall hits (Count)
board.cache_hierarchy.l2caches.overallHits::total        14780                       # number of overall hits (Count)
board.cache_hierarchy.l2caches.demandMisses::cache_hierarchy.l1dcaches.prefetcher         6115                       # number of demand (read+write) misses (Count)
board.cache_hierarchy.l2caches.demandMisses::processor.cores.core.inst         1285                       # number of demand (read+write) misses (Count)
board.cache_hierarchy.l2caches.demandMisses::processor.cores.core.data       739424                       # number of demand (read+write) misses (Count)
board.cache_hierarchy.l2caches.demandMisses::total       746824                       # number of demand (read+write) misses (Count)
board.cache_hierarchy.l2caches.overallMisses::cache_hierarchy.l1dcaches.prefetcher         6115                       # number of overall misses (Count)
board.cache_hierarchy.l2caches.overallMisses::processor.cores.core.inst         1285                       # number of overall misses (Count)
board.cache_hierarchy.l2caches.overallMisses::processor.cores.core.data       739424                       # number of overall misses (Count)
board.cache_hierarchy.l2caches.overallMisses::total       746824                       # number of overall misses (Count)
board.cache_hierarchy.l2caches.demandMissLatency::cache_hierarchy.l1dcaches.prefetcher    427696889                       # number of demand (read+write) miss ticks (Tick)
board.cache_hierarchy.l2caches.demandMissLatency::processor.cores.core.inst     70149447                       # number of demand (read+write) miss ticks (Tick)
board.cache_hierarchy.l2caches.demandMissLatency::processor.cores.core.data  38114469045                       # number of demand (read+write) miss ticks (Tick)
board.cache_hierarchy.l2caches.demandMissLatency::total  38612315381                       # number of demand (read+write) miss ticks (Tick)
board.cache_hierarchy.l2caches.overallMissLatency::cache_hierarchy.l1dcaches.prefetcher    427696889                       # number of overall miss ticks (Tick)
board.cache_hierarchy.l2caches.overallMissLatency::processor.cores.core.inst     70149447                       # number of overall miss ticks (Tick)
board.cache_hierarchy.l2caches.overallMissLatency::processor.cores.core.data  38114469045                       # number of overall miss ticks (Tick)
board.cache_hierarchy.l2caches.overallMissLatency::total  38612315381                       # number of overall miss ticks (Tick)
board.cache_hierarchy.l2caches.demandAccesses::cache_hierarchy.l1dcaches.prefetcher         6768                       # number of demand (read+write) accesses (Count)
board.cache_hierarchy.l2caches.demandAccesses::processor.cores.core.inst         1330                       # number of demand (read+write) accesses (Count)
board.cache_hierarchy.l2caches.demandAccesses::processor.cores.core.data       753506                       # number of demand (read+write) accesses (Count)
board.cache_hierarchy.l2caches.demandAccesses::total       761604                       # number of demand (read+write) accesses (Count)
board.cache_hierarchy.l2caches.overallAccesses::cache_hierarchy.l1dcaches.prefetcher         6768                       # number of overall (read+write) accesses (Count)
board.cache_hierarchy.l2caches.overallAccesses::processor.cores.core.inst         1330                       # number of overall (read+write) accesses (Count)
board.cache_hierarchy.l2caches.overallAccesses::processor.cores.core.data       753506                       # number of overall (read+write) accesses (Count)
board.cache_hierarchy.l2caches.overallAccesses::total       761604                       # number of overall (read+write) accesses (Count)
board.cache_hierarchy.l2caches.demandMissRate::cache_hierarchy.l1dcaches.prefetcher     0.903517                       # miss rate for demand accesses (Ratio)
board.cache_hierarchy.l2caches.demandMissRate::processor.cores.core.inst     0.966165                       # miss rate for demand accesses (Ratio)
board.cache_hierarchy.l2caches.demandMissRate::processor.cores.core.data     0.981311                       # miss rate for demand accesses (Ratio)
board.cache_hierarchy.l2caches.demandMissRate::total     0.980594                       # miss rate for demand accesses (Ratio)
board.cache_hierarchy.l2caches.overallMissRate::cache_hierarchy.l1dcaches.prefetcher     0.903517                       # miss rate for overall accesses (Ratio)
board.cache_hierarchy.l2caches.overallMissRate::processor.cores.core.inst     0.966165                       # miss rate for overall accesses (Ratio)
board.cache_hierarchy.l2caches.overallMissRate::processor.cores.core.data     0.981311                       # miss rate for overall accesses (Ratio)
board.cache_hierarchy.l2caches.overallMissRate::total     0.980594                       # miss rate for overall accesses (Ratio)
board.cache_hierarchy.l2caches.demandAvgMissLatency::cache_hierarchy.l1dcaches.prefetcher 69942.254947                       # average overall miss latency in ticks ((Tick/Count))
board.cache_hierarchy.l2caches.demandAvgMissLatency::processor.cores.core.inst 54591.009339                       # average overall miss latency in ticks ((Tick/Count))
board.cache_hierarchy.l2caches.demandAvgMissLatency::processor.cores.core.data 51546.161668                       # average overall miss latency in ticks ((Tick/Count))
board.cache_hierarchy.l2caches.demandAvgMissLatency::total 51702.028029                       # average overall miss latency in ticks ((Tick/Count))
board.cache_hierarchy.l2caches.overallAvgMissLatency::cache_hierarchy.l1dcaches.prefetcher 69942.254947                       # average overall miss latency ((Tick/Count))
board.cache_hierarchy.l2caches.overallAvgMissLatency::processor.cores.core.inst 54591.009339                       # average overall miss latency ((Tick/Count))
board.cache_hierarchy.l2caches.overallAvgMissLatency::processor.cores.core.data 51546.161668                       # average overall miss latency ((Tick/Count))
board.cache_hierarchy.l2caches.overallAvgMissLatency::total 51702.028029                       # average overall miss latency ((Tick/Count))
board.cache_hierarchy.l2caches.blockedCycles::no_mshrs          150                       # number of cycles access was blocked (Cycle)
board.cache_hierarchy.l2caches.blockedCycles::no_targets            0                       # number of cycles access was blocked (Cycle)
board.cache_hierarchy.l2caches.blockedCauses::no_mshrs            2                       # number of times access was blocked (Count)
board.cache_hierarchy.l2caches.blockedCauses::no_targets            0                       # number of times access was blocked (Count)
board.cache_hierarchy.l2caches.avgBlocked::no_mshrs           75                       # average number of cycles each access was blocked ((Cycle/Count))
board.cache_hierarchy.l2caches.avgBlocked::no_targets          nan                       # average number of cycles each access was blocked ((Cycle/Count))
board.cache_hierarchy.l2caches.writebacks::writebacks          554                       # number of writebacks (Count)
board.cache_hierarchy.l2caches.writebacks::total          554                       # number of writebacks (Count)
board.cache_hierarchy.l2caches.demandMshrHits::cache_hierarchy.l1dcaches.prefetcher         2196                       # number of demand (read+write) MSHR hits (Count)
board.cache_hierarchy.l2caches.demandMshrHits::total         2196                       # number of demand (read+write) MSHR hits (Count)
board.cache_hierarchy.l2caches.overallMshrHits::cache_hierarchy.l1dcaches.prefetcher         2196                       # number of overall MSHR hits (Count)
board.cache_hierarchy.l2caches.overallMshrHits::total         2196                       # number of overall MSHR hits (Count)
board.cache_hierarchy.l2caches.demandMshrMisses::cache_hierarchy.l1dcaches.prefetcher         3919                       # number of demand (read+write) MSHR misses (Count)
board.cache_hierarchy.l2caches.demandMshrMisses::processor.cores.core.inst         1285                       # number of demand (read+write) MSHR misses (Count)
board.cache_hierarchy.l2caches.demandMshrMisses::processor.cores.core.data       739424                       # number of demand (read+write) MSHR misses (Count)
board.cache_hierarchy.l2caches.demandMshrMisses::total       744628                       # number of demand (read+write) MSHR misses (Count)
board.cache_hierarchy.l2caches.overallMshrMisses::cache_hierarchy.l1dcaches.prefetcher         3919                       # number of overall MSHR misses (Count)
board.cache_hierarchy.l2caches.overallMshrMisses::cache_hierarchy.l2caches.prefetcher         6131                       # number of overall MSHR misses (Count)
board.cache_hierarchy.l2caches.overallMshrMisses::processor.cores.core.inst         1285                       # number of overall MSHR misses (Count)
board.cache_hierarchy.l2caches.overallMshrMisses::processor.cores.core.data       739424                       # number of overall MSHR misses (Count)
board.cache_hierarchy.l2caches.overallMshrMisses::total       750759                       # number of overall MSHR misses (Count)
board.cache_hierarchy.l2caches.demandMshrMissLatency::cache_hierarchy.l1dcaches.prefetcher    316027430                       # number of demand (read+write) MSHR miss ticks (Tick)
board.cache_hierarchy.l2caches.demandMshrMissLatency::processor.cores.core.inst     69721875                       # number of demand (read+write) MSHR miss ticks (Tick)
board.cache_hierarchy.l2caches.demandMshrMissLatency::processor.cores.core.data  37868240853                       # number of demand (read+write) MSHR miss ticks (Tick)
board.cache_hierarchy.l2caches.demandMshrMissLatency::total  38253990158                       # number of demand (read+write) MSHR miss ticks (Tick)
board.cache_hierarchy.l2caches.overallMshrMissLatency::cache_hierarchy.l1dcaches.prefetcher    316027430                       # number of overall MSHR miss ticks (Tick)
board.cache_hierarchy.l2caches.overallMshrMissLatency::cache_hierarchy.l2caches.prefetcher    369258113                       # number of overall MSHR miss ticks (Tick)
board.cache_hierarchy.l2caches.overallMshrMissLatency::processor.cores.core.inst     69721875                       # number of overall MSHR miss ticks (Tick)
board.cache_hierarchy.l2caches.overallMshrMissLatency::processor.cores.core.data  37868240853                       # number of overall MSHR miss ticks (Tick)
board.cache_hierarchy.l2caches.overallMshrMissLatency::total  38623248271                       # number of overall MSHR miss ticks (Tick)
board.cache_hierarchy.l2caches.demandMshrMissRate::cache_hierarchy.l1dcaches.prefetcher     0.579048                       # mshr miss ratio for demand accesses (Ratio)
board.cache_hierarchy.l2caches.demandMshrMissRate::processor.cores.core.inst     0.966165                       # mshr miss ratio for demand accesses (Ratio)
board.cache_hierarchy.l2caches.demandMshrMissRate::processor.cores.core.data     0.981311                       # mshr miss ratio for demand accesses (Ratio)
board.cache_hierarchy.l2caches.demandMshrMissRate::total     0.977710                       # mshr miss ratio for demand accesses (Ratio)
board.cache_hierarchy.l2caches.overallMshrMissRate::cache_hierarchy.l1dcaches.prefetcher     0.579048                       # mshr miss ratio for overall accesses (Ratio)
board.cache_hierarchy.l2caches.overallMshrMissRate::cache_hierarchy.l2caches.prefetcher          inf                       # mshr miss ratio for overall accesses (Ratio)
board.cache_hierarchy.l2caches.overallMshrMissRate::processor.cores.core.inst     0.966165                       # mshr miss ratio for overall accesses (Ratio)
board.cache_hierarchy.l2caches.overallMshrMissRate::processor.cores.core.data     0.981311                       # mshr miss ratio for overall accesses (Ratio)
board.cache_hierarchy.l2caches.overallMshrMissRate::total     0.985760                       # mshr miss ratio for overall accesses (Ratio)
board.cache_hierarchy.l2caches.demandAvgMshrMissLatency::cache_hierarchy.l1dcaches.prefetcher 80639.813728                       # average overall mshr miss latency ((Tick/Count))
board.cache_hierarchy.l2caches.demandAvgMshrMissLatency::processor.cores.core.inst 54258.268482                       # average overall mshr miss latency ((Tick/Count))
board.cache_hierarchy.l2caches.demandAvgMshrMissLatency::processor.cores.core.data 51213.161668                       # average overall mshr miss latency ((Tick/Count))
board.cache_hierarchy.l2caches.demandAvgMshrMissLatency::total 51373.289962                       # average overall mshr miss latency ((Tick/Count))
board.cache_hierarchy.l2caches.overallAvgMshrMissLatency::cache_hierarchy.l1dcaches.prefetcher 80639.813728                       # average overall mshr miss latency ((Tick/Count))
board.cache_hierarchy.l2caches.overallAvgMshrMissLatency::cache_hierarchy.l2caches.prefetcher 60228.039961                       # average overall mshr miss latency ((Tick/Count))
board.cache_hierarchy.l2caches.overallAvgMshrMissLatency::processor.cores.core.inst 54258.268482                       # average overall mshr miss latency ((Tick/Count))
board.cache_hierarchy.l2caches.overallAvgMshrMissLatency::processor.cores.core.data 51213.161668                       # average overall mshr miss latency ((Tick/Count))
board.cache_hierarchy.l2caches.overallAvgMshrMissLatency::total 51445.601413                       # average overall mshr miss latency ((Tick/Count))
board.cache_hierarchy.l2caches.replacements         2328                       # number of replacements (Count)
board.cache_hierarchy.l2caches.CleanInvalidReq.missLatency::processor.cores.core.data   4969032660                       # number of CleanInvalidReq miss ticks (Tick)
board.cache_hierarchy.l2caches.CleanInvalidReq.missLatency::total   4969032660                       # number of CleanInvalidReq miss ticks (Tick)
board.cache_hierarchy.l2caches.CleanInvalidReq.avgMissLatency::processor.cores.core.data          inf                       # average CleanInvalidReq miss latency ((Tick/Count))
board.cache_hierarchy.l2caches.CleanInvalidReq.avgMissLatency::total          inf                       # average CleanInvalidReq miss latency ((Tick/Count))
board.cache_hierarchy.l2caches.CleanInvalidReq.mshrMisses::processor.cores.core.data      5402800                       # number of CleanInvalidReq MSHR misses (Count)
board.cache_hierarchy.l2caches.CleanInvalidReq.mshrMisses::total      5402800                       # number of CleanInvalidReq MSHR misses (Count)
board.cache_hierarchy.l2caches.CleanInvalidReq.mshrMissLatency::processor.cores.core.data  34183515600                       # number of CleanInvalidReq MSHR miss ticks (Tick)
board.cache_hierarchy.l2caches.CleanInvalidReq.mshrMissLatency::total  34183515600                       # number of CleanInvalidReq MSHR miss ticks (Tick)
board.cache_hierarchy.l2caches.CleanInvalidReq.mshrMissRate::processor.cores.core.data          inf                       # mshr miss rate for CleanInvalidReq accesses (Ratio)
board.cache_hierarchy.l2caches.CleanInvalidReq.mshrMissRate::total          inf                       # mshr miss rate for CleanInvalidReq accesses (Ratio)
board.cache_hierarchy.l2caches.CleanInvalidReq.avgMshrMissLatency::processor.cores.core.data         6327                       # average CleanInvalidReq mshr miss latency ((Tick/Count))
board.cache_hierarchy.l2caches.CleanInvalidReq.avgMshrMissLatency::total         6327                       # average CleanInvalidReq mshr miss latency ((Tick/Count))
board.cache_hierarchy.l2caches.HardPFReq.mshrMisses::cache_hierarchy.l2caches.prefetcher         6131                       # number of HardPFReq MSHR misses (Count)
board.cache_hierarchy.l2caches.HardPFReq.mshrMisses::total         6131                       # number of HardPFReq MSHR misses (Count)
board.cache_hierarchy.l2caches.HardPFReq.mshrMissLatency::cache_hierarchy.l2caches.prefetcher    369258113                       # number of HardPFReq MSHR miss ticks (Tick)
board.cache_hierarchy.l2caches.HardPFReq.mshrMissLatency::total    369258113                       # number of HardPFReq MSHR miss ticks (Tick)
board.cache_hierarchy.l2caches.HardPFReq.mshrMissRate::cache_hierarchy.l2caches.prefetcher          inf                       # mshr miss rate for HardPFReq accesses (Ratio)
board.cache_hierarchy.l2caches.HardPFReq.mshrMissRate::total          inf                       # mshr miss rate for HardPFReq accesses (Ratio)
board.cache_hierarchy.l2caches.HardPFReq.avgMshrMissLatency::cache_hierarchy.l2caches.prefetcher 60228.039961                       # average HardPFReq mshr miss latency ((Tick/Count))
board.cache_hierarchy.l2caches.HardPFReq.avgMshrMissLatency::total 60228.039961                       # average HardPFReq mshr miss latency ((Tick/Count))
board.cache_hierarchy.l2caches.ReadExReq.hits::processor.cores.core.data          550                       # number of ReadExReq hits (Count)
board.cache_hierarchy.l2caches.ReadExReq.hits::total          550                       # number of ReadExReq hits (Count)
board.cache_hierarchy.l2caches.ReadExReq.misses::processor.cores.core.data          869                       # number of ReadExReq misses (Count)
board.cache_hierarchy.l2caches.ReadExReq.misses::total          869                       # number of ReadExReq misses (Count)
board.cache_hierarchy.l2caches.ReadExReq.missLatency::processor.cores.core.data     52254693                       # number of ReadExReq miss ticks (Tick)
board.cache_hierarchy.l2caches.ReadExReq.missLatency::total     52254693                       # number of ReadExReq miss ticks (Tick)
board.cache_hierarchy.l2caches.ReadExReq.accesses::processor.cores.core.data         1419                       # number of ReadExReq accesses(hits+misses) (Count)
board.cache_hierarchy.l2caches.ReadExReq.accesses::total         1419                       # number of ReadExReq accesses(hits+misses) (Count)
board.cache_hierarchy.l2caches.ReadExReq.missRate::processor.cores.core.data     0.612403                       # miss rate for ReadExReq accesses (Ratio)
board.cache_hierarchy.l2caches.ReadExReq.missRate::total     0.612403                       # miss rate for ReadExReq accesses (Ratio)
board.cache_hierarchy.l2caches.ReadExReq.avgMissLatency::processor.cores.core.data 60131.982739                       # average ReadExReq miss latency ((Tick/Count))
board.cache_hierarchy.l2caches.ReadExReq.avgMissLatency::total 60131.982739                       # average ReadExReq miss latency ((Tick/Count))
board.cache_hierarchy.l2caches.ReadExReq.mshrMisses::processor.cores.core.data          869                       # number of ReadExReq MSHR misses (Count)
board.cache_hierarchy.l2caches.ReadExReq.mshrMisses::total          869                       # number of ReadExReq MSHR misses (Count)
board.cache_hierarchy.l2caches.ReadExReq.mshrMissLatency::processor.cores.core.data     51965316                       # number of ReadExReq MSHR miss ticks (Tick)
board.cache_hierarchy.l2caches.ReadExReq.mshrMissLatency::total     51965316                       # number of ReadExReq MSHR miss ticks (Tick)
board.cache_hierarchy.l2caches.ReadExReq.mshrMissRate::processor.cores.core.data     0.612403                       # mshr miss rate for ReadExReq accesses (Ratio)
board.cache_hierarchy.l2caches.ReadExReq.mshrMissRate::total     0.612403                       # mshr miss rate for ReadExReq accesses (Ratio)
board.cache_hierarchy.l2caches.ReadExReq.avgMshrMissLatency::processor.cores.core.data 59798.982739                       # average ReadExReq mshr miss latency ((Tick/Count))
board.cache_hierarchy.l2caches.ReadExReq.avgMshrMissLatency::total 59798.982739                       # average ReadExReq mshr miss latency ((Tick/Count))
board.cache_hierarchy.l2caches.ReadSharedReq.hits::cache_hierarchy.l1dcaches.prefetcher          653                       # number of ReadSharedReq hits (Count)
board.cache_hierarchy.l2caches.ReadSharedReq.hits::processor.cores.core.inst           45                       # number of ReadSharedReq hits (Count)
board.cache_hierarchy.l2caches.ReadSharedReq.hits::processor.cores.core.data        13532                       # number of ReadSharedReq hits (Count)
board.cache_hierarchy.l2caches.ReadSharedReq.hits::total        14230                       # number of ReadSharedReq hits (Count)
board.cache_hierarchy.l2caches.ReadSharedReq.misses::cache_hierarchy.l1dcaches.prefetcher         6115                       # number of ReadSharedReq misses (Count)
board.cache_hierarchy.l2caches.ReadSharedReq.misses::processor.cores.core.inst         1285                       # number of ReadSharedReq misses (Count)
board.cache_hierarchy.l2caches.ReadSharedReq.misses::processor.cores.core.data       738555                       # number of ReadSharedReq misses (Count)
board.cache_hierarchy.l2caches.ReadSharedReq.misses::total       745955                       # number of ReadSharedReq misses (Count)
board.cache_hierarchy.l2caches.ReadSharedReq.missLatency::cache_hierarchy.l1dcaches.prefetcher    427696889                       # number of ReadSharedReq miss ticks (Tick)
board.cache_hierarchy.l2caches.ReadSharedReq.missLatency::processor.cores.core.inst     70149447                       # number of ReadSharedReq miss ticks (Tick)
board.cache_hierarchy.l2caches.ReadSharedReq.missLatency::processor.cores.core.data  38062214352                       # number of ReadSharedReq miss ticks (Tick)
board.cache_hierarchy.l2caches.ReadSharedReq.missLatency::total  38560060688                       # number of ReadSharedReq miss ticks (Tick)
board.cache_hierarchy.l2caches.ReadSharedReq.accesses::cache_hierarchy.l1dcaches.prefetcher         6768                       # number of ReadSharedReq accesses(hits+misses) (Count)
board.cache_hierarchy.l2caches.ReadSharedReq.accesses::processor.cores.core.inst         1330                       # number of ReadSharedReq accesses(hits+misses) (Count)
board.cache_hierarchy.l2caches.ReadSharedReq.accesses::processor.cores.core.data       752087                       # number of ReadSharedReq accesses(hits+misses) (Count)
board.cache_hierarchy.l2caches.ReadSharedReq.accesses::total       760185                       # number of ReadSharedReq accesses(hits+misses) (Count)
board.cache_hierarchy.l2caches.ReadSharedReq.missRate::cache_hierarchy.l1dcaches.prefetcher     0.903517                       # miss rate for ReadSharedReq accesses (Ratio)
board.cache_hierarchy.l2caches.ReadSharedReq.missRate::processor.cores.core.inst     0.966165                       # miss rate for ReadSharedReq accesses (Ratio)
board.cache_hierarchy.l2caches.ReadSharedReq.missRate::processor.cores.core.data     0.982007                       # miss rate for ReadSharedReq accesses (Ratio)
board.cache_hierarchy.l2caches.ReadSharedReq.missRate::total     0.981281                       # miss rate for ReadSharedReq accesses (Ratio)
board.cache_hierarchy.l2caches.ReadSharedReq.avgMissLatency::cache_hierarchy.l1dcaches.prefetcher 69942.254947                       # average ReadSharedReq miss latency ((Tick/Count))
board.cache_hierarchy.l2caches.ReadSharedReq.avgMissLatency::processor.cores.core.inst 54591.009339                       # average ReadSharedReq miss latency ((Tick/Count))
board.cache_hierarchy.l2caches.ReadSharedReq.avgMissLatency::processor.cores.core.data 51536.059402                       # average ReadSharedReq miss latency ((Tick/Count))
board.cache_hierarchy.l2caches.ReadSharedReq.avgMissLatency::total 51692.207557                       # average ReadSharedReq miss latency ((Tick/Count))
board.cache_hierarchy.l2caches.ReadSharedReq.mshrHits::cache_hierarchy.l1dcaches.prefetcher         2196                       # number of ReadSharedReq MSHR hits (Count)
board.cache_hierarchy.l2caches.ReadSharedReq.mshrHits::total         2196                       # number of ReadSharedReq MSHR hits (Count)
board.cache_hierarchy.l2caches.ReadSharedReq.mshrMisses::cache_hierarchy.l1dcaches.prefetcher         3919                       # number of ReadSharedReq MSHR misses (Count)
board.cache_hierarchy.l2caches.ReadSharedReq.mshrMisses::processor.cores.core.inst         1285                       # number of ReadSharedReq MSHR misses (Count)
board.cache_hierarchy.l2caches.ReadSharedReq.mshrMisses::processor.cores.core.data       738555                       # number of ReadSharedReq MSHR misses (Count)
board.cache_hierarchy.l2caches.ReadSharedReq.mshrMisses::total       743759                       # number of ReadSharedReq MSHR misses (Count)
board.cache_hierarchy.l2caches.ReadSharedReq.mshrMissLatency::cache_hierarchy.l1dcaches.prefetcher    316027430                       # number of ReadSharedReq MSHR miss ticks (Tick)
board.cache_hierarchy.l2caches.ReadSharedReq.mshrMissLatency::processor.cores.core.inst     69721875                       # number of ReadSharedReq MSHR miss ticks (Tick)
board.cache_hierarchy.l2caches.ReadSharedReq.mshrMissLatency::processor.cores.core.data  37816275537                       # number of ReadSharedReq MSHR miss ticks (Tick)
board.cache_hierarchy.l2caches.ReadSharedReq.mshrMissLatency::total  38202024842                       # number of ReadSharedReq MSHR miss ticks (Tick)
board.cache_hierarchy.l2caches.ReadSharedReq.mshrMissRate::cache_hierarchy.l1dcaches.prefetcher     0.579048                       # mshr miss rate for ReadSharedReq accesses (Ratio)
board.cache_hierarchy.l2caches.ReadSharedReq.mshrMissRate::processor.cores.core.inst     0.966165                       # mshr miss rate for ReadSharedReq accesses (Ratio)
board.cache_hierarchy.l2caches.ReadSharedReq.mshrMissRate::processor.cores.core.data     0.982007                       # mshr miss rate for ReadSharedReq accesses (Ratio)
board.cache_hierarchy.l2caches.ReadSharedReq.mshrMissRate::total     0.978392                       # mshr miss rate for ReadSharedReq accesses (Ratio)
[...]
board.processor.cores.core.fetch.pendingTrapStallCycles         3034                       # Number of stall cycles due to pending traps (Cycle)
board.processor.cores.core.fetch.cacheLines     94611684                       # Number of cache lines fetched (Count)
board.processor.cores.core.fetch.icacheSquashes          877                       # Number of outstanding Icache misses that were squashed (Count)
board.processor.cores.core.fetch.nisnDist::samples    536495921                       # Number of instructions fetched each cycle (Total) (Count)
board.processor.cores.core.fetch.nisnDist::mean     1.948046                       # Number of instructions fetched each cycle (Total) (Count)
board.processor.cores.core.fetch.nisnDist::stdev     3.074285                       # Number of instructions fetched each cycle (Total) (Count)
board.processor.cores.core.fetch.nisnDist::underflows            0      0.00%      0.00% # Number of instructions fetched each cycle (Total) (Count)
board.processor.cores.core.fetch.nisnDist::0    329907764     61.49%     61.49% # Number of instructions fetched each cycle (Total) (Count)
board.processor.cores.core.fetch.nisnDist::1     45206842      8.43%     69.92% # Number of instructions fetched each cycle (Total) (Count)
board.processor.cores.core.fetch.nisnDist::2      3637851      0.68%     70.60% # Number of instructions fetched each cycle (Total) (Count)
board.processor.cores.core.fetch.nisnDist::3     44696902      8.33%     78.93% # Number of instructions fetched each cycle (Total) (Count)
board.processor.cores.core.fetch.nisnDist::4      3820034      0.71%     79.64% # Number of instructions fetched each cycle (Total) (Count)
board.processor.cores.core.fetch.nisnDist::5      7588979      1.41%     81.06% # Number of instructions fetched each cycle (Total) (Count)
board.processor.cores.core.fetch.nisnDist::6      2752621      0.51%     81.57% # Number of instructions fetched each cycle (Total) (Count)
board.processor.cores.core.fetch.nisnDist::7      2274703      0.42%     81.99% # Number of instructions fetched each cycle (Total) (Count)
board.processor.cores.core.fetch.nisnDist::8     96610225     18.01%    100.00% # Number of instructions fetched each cycle (Total) (Count)
board.processor.cores.core.fetch.nisnDist::overflows            0      0.00%    100.00% # Number of instructions fetched each cycle (Total) (Count)
board.processor.cores.core.fetch.nisnDist::min_value            0                       # Number of instructions fetched each cycle (Total) (Count)
board.processor.cores.core.fetch.nisnDist::max_value            8                       # Number of instructions fetched each cycle (Total) (Count)
board.processor.cores.core.fetch.nisnDist::total    536495921                       # Number of instructions fetched each cycle (Total) (Count)
board.processor.cores.core.fetchStats0.numInsts    633832905                       # Number of instructions fetched (thread level) (Count)
board.processor.cores.core.fetchStats0.numOps            0                       # Number of ops (including micro ops) fetched (thread level) (Count)
board.processor.cores.core.fetchStats0.fetchRate     1.181204                       # Number of inst fetches per cycle ((Count/Cycle))
board.processor.cores.core.fetchStats0.numBranches     59844672                       # Number of branches fetched (Count)
board.processor.cores.core.fetchStats0.branchRate     0.111526                       # Number of branch fetches per cycle (Ratio)
board.processor.cores.core.fetchStats0.icacheStallCycles       110375                       # ICache total stall cycles (Cycle)
board.processor.cores.core.fetchStats0.numFetchSuspends            0                       # Number of times Execute suspended instruction fetching (Count)
board.processor.cores.core.iew.idleCycles            0                       # Number of cycles IEW is idle (Cycle)
board.processor.cores.core.iew.squashCycles      5887098                       # Number of cycles IEW is squashing (Cycle)
board.processor.cores.core.iew.blockCycles    168568699                       # Number of cycles IEW is blocking (Cycle)
board.processor.cores.core.iew.unblockCycles     10935730                       # Number of cycles IEW is unblocking (Cycle)
board.processor.cores.core.iew.dispatchedInsts    760317709                       # Number of instructions dispatched to IQ (Count)
board.processor.cores.core.iew.dispSquashedInsts          203                       # Number of squashed instructions skipped by dispatch (Count)
board.processor.cores.core.iew.dispLoadInsts    153469502                       # Number of dispatched load instructions (Count)
board.processor.cores.core.iew.dispStoreInsts     97774090                       # Number of dispatched store instructions (Count)
board.processor.cores.core.iew.dispNonSpecInsts           21                       # Number of dispatched non-speculative instructions (Count)
board.processor.cores.core.iew.iqFullEvents      5593758                       # Number of times the IQ has become full, causing a stall (Count)
board.processor.cores.core.iew.lsqFullEvents         1232                       # Number of times the LSQ has become full, causing a stall (Count)
board.processor.cores.core.iew.memOrderViolationEvents      5823875                       # Number of memory order violations (Count)
board.processor.cores.core.iew.predictedTakenIncorrect       155854                       # Number of branches that were predicted taken incorrectly (Count)
board.processor.cores.core.iew.predictedNotTakenIncorrect        11581                       # Number of branches that were predicted not taken incorrectly (Count)
board.processor.cores.core.iew.branchMispredicts       167435                       # Number of branch mispredicts detected at execute (Count)
board.processor.cores.core.iew.instsToCommit    458505877                       # Cumulative count of insts sent to commit (Count)
board.processor.cores.core.iew.writebackCount    458010015                       # Cumulative count of insts written-back (Count)
board.processor.cores.core.iew.producerInst    328559027                       # Number of instructions producing a value (Count)
board.processor.cores.core.iew.consumerInst    426878015                       # Number of instructions consuming a value (Count)
board.processor.cores.core.iew.wbRate        0.853543                       # Insts written-back per cycle ((Count/Cycle))
board.processor.cores.core.iew.wbFanout      0.769679                       # Average fanout of values written-back ((Count/Count))
board.processor.cores.core.interrupts.clk_domain.clock         5328                       # Clock period in ticks (Tick)
board.processor.cores.core.lsq0.forwLoads     27707234                       # Number of loads that had data forwarded from stores (Count)
board.processor.cores.core.lsq0.squashedLoads    101273264                       # Number of loads squashed (Count)
board.processor.cores.core.lsq0.ignoredResponses          116                       # Number of memory responses ignored because the instruction is squashed (Count)
board.processor.cores.core.lsq0.memOrderViolation      5823875                       # Number of memory ordering violations (Count)
board.processor.cores.core.lsq0.squashedStores     66684513                       # Number of stores squashed (Count)
board.processor.cores.core.lsq0.rescheduledLoads          239                       # Number of loads that were rescheduled (Count)
board.processor.cores.core.lsq0.blockedByCache            0                       # Number of times an access to memory failed due to the cache being blocked (Count)
board.processor.cores.core.lsq0.loadToUse::samples     52196238                       # Distribution of cycle latency between the first time a load is issued and its completion (Unspecified)
board.processor.cores.core.lsq0.loadToUse::mean     4.284793                       # Distribution of cycle latency between the first time a load is issued and its completion (Unspecified)
board.processor.cores.core.lsq0.loadToUse::stdev    20.738751                       # Distribution of cycle latency between the first time a load is issued and its completion (Unspecified)
board.processor.cores.core.lsq0.loadToUse::0-9     51437182     98.55%     98.55% # Distribution of cycle latency between the first time a load is issued and its completion (Unspecified)
board.processor.cores.core.lsq0.loadToUse::10-19        18321      0.04%     98.58% # Distribution of cycle latency between the first time a load is issued and its completion (Unspecified)
board.processor.cores.core.lsq0.loadToUse::20-29          395      0.00%     98.58% # Distribution of cycle latency between the first time a load is issued and its completion (Unspecified)
board.processor.cores.core.lsq0.loadToUse::30-39          186      0.00%     98.58% # Distribution of cycle latency between the first time a load is issued and its completion (Unspecified)
board.processor.cores.core.lsq0.loadToUse::40-49           91      0.00%     98.58% # Distribution of cycle latency between the first time a load is issued and its completion (Unspecified)
board.processor.cores.core.lsq0.loadToUse::50-59         5259      0.01%     98.59% # Distribution of cycle latency between the first time a load is issued and its completion (Unspecified)
board.processor.cores.core.lsq0.loadToUse::60-69           69      0.00%     98.59% # Distribution of cycle latency between the first time a load is issued and its completion (Unspecified)
board.processor.cores.core.lsq0.loadToUse::70-79          429      0.00%     98.59% # Distribution of cycle latency between the first time a load is issued and its completion (Unspecified)
board.processor.cores.core.lsq0.loadToUse::80-89          107      0.00%     98.59% # Distribution of cycle latency between the first time a load is issued and its completion (Unspecified)
board.processor.cores.core.lsq0.loadToUse::90-99          133      0.00%     98.59% # Distribution of cycle latency between the first time a load is issued and its completion (Unspecified)
board.processor.cores.core.lsq0.loadToUse::100-109          174      0.00%     98.59% # Distribution of cycle latency between the first time a load is issued and its completion (Unspecified)
board.processor.cores.core.lsq0.loadToUse::110-119          187      0.00%     98.59% # Distribution of cycle latency between the first time a load is issued and its completion (Unspecified)
board.processor.cores.core.lsq0.loadToUse::120-129          148      0.00%     98.59% # Distribution of cycle latency between the first time a load is issued and its completion (Unspecified)
board.processor.cores.core.lsq0.loadToUse::130-139          230      0.00%     98.60% # Distribution of cycle latency between the first time a load is issued and its completion (Unspecified)
board.processor.cores.core.lsq0.loadToUse::140-149       585602      1.12%     99.72% # Distribution of cycle latency between the first time a load is issued and its completion (Unspecified)
board.processor.cores.core.lsq0.loadToUse::150-159          124      0.00%     99.72% # Distribution of cycle latency between the first time a load is issued and its completion (Unspecified)
board.processor.cores.core.lsq0.loadToUse::160-169          728      0.00%     99.72% # Distribution of cycle latency between the first time a load is issued and its completion (Unspecified)
board.processor.cores.core.lsq0.loadToUse::170-179          238      0.00%     99.72% # Distribution of cycle latency between the first time a load is issued and its completion (Unspecified)
board.processor.cores.core.lsq0.loadToUse::180-189       128286      0.25%     99.96% # Distribution of cycle latency between the first time a load is issued and its completion (Unspecified)
board.processor.cores.core.lsq0.loadToUse::190-199          368      0.00%     99.97% # Distribution of cycle latency between the first time a load is issued and its completion (Unspecified)
board.processor.cores.core.lsq0.loadToUse::200-209          324      0.00%     99.97% # Distribution of cycle latency between the first time a load is issued and its completion (Unspecified)
board.processor.cores.core.lsq0.loadToUse::210-219           70      0.00%     99.97% # Distribution of cycle latency between the first time a load is issued and its completion (Unspecified)
board.processor.cores.core.lsq0.loadToUse::220-229         8425      0.02%     99.98% # Distribution of cycle latency between the first time a load is issued and its completion (Unspecified)
board.processor.cores.core.lsq0.loadToUse::230-239          117      0.00%     99.98% # Distribution of cycle latency between the first time a load is issued and its completion (Unspecified)
board.processor.cores.core.lsq0.loadToUse::240-249           34      0.00%     99.98% # Distribution of cycle latency between the first time a load is issued and its completion (Unspecified)
board.processor.cores.core.lsq0.loadToUse::250-259           86      0.00%     99.98% # Distribution of cycle latency between the first time a load is issued and its completion (Unspecified)
board.processor.cores.core.lsq0.loadToUse::260-269           17      0.00%     99.98% # Distribution of cycle latency between the first time a load is issued and its completion (Unspecified)
board.processor.cores.core.lsq0.loadToUse::270-279            4      0.00%     99.98% # Distribution of cycle latency between the first time a load is issued and its completion (Unspecified)
board.processor.cores.core.lsq0.loadToUse::280-289           42      0.00%     99.98% # Distribution of cycle latency between the first time a load is issued and its completion (Unspecified)
board.processor.cores.core.lsq0.loadToUse::290-299           24      0.00%     99.98% # Distribution of cycle latency between the first time a load is issued and its completion (Unspecified)
board.processor.cores.core.lsq0.loadToUse::overflows         8838      0.02%    100.00% # Distribution of cycle latency between the first time a load is issued and its completion (Unspecified)
board.processor.cores.core.lsq0.loadToUse::min_value            2                       # Distribution of cycle latency between the first time a load is issued and its completion (Unspecified)
board.processor.cores.core.lsq0.loadToUse::max_value         1104                       # Distribution of cycle latency between the first time a load is issued and its completion (Unspecified)
board.processor.cores.core.lsq0.loadToUse::total     52196238                       # Distribution of cycle latency between the first time a load is issued and its completion (Unspecified)
board.processor.cores.core.mmu.dtb.rdAccesses     70340624                       # TLB accesses on read requests (Count)
board.processor.cores.core.mmu.dtb.wrAccesses     36628186                       # TLB accesses on write requests (Count)
board.processor.cores.core.mmu.dtb.rdMisses          421                       # TLB misses on read requests (Count)
board.processor.cores.core.mmu.dtb.wrMisses          161                       # TLB misses on write requests (Count)
board.processor.cores.core.mmu.dtb.walker.power_state.pwrStateResidencyTicks::UNDEFINED 178687405728                       # Cumulative time (in ticks) in various power states (Tick)
board.processor.cores.core.mmu.itb.rdAccesses            0                       # TLB accesses on read requests (Count)
board.processor.cores.core.mmu.itb.wrAccesses     94612180                       # TLB accesses on write requests (Count)
board.processor.cores.core.mmu.itb.rdMisses            0                       # TLB misses on read requests (Count)
board.processor.cores.core.mmu.itb.wrMisses          627                       # TLB misses on write requests (Count)
board.processor.cores.core.mmu.itb.walker.power_state.pwrStateResidencyTicks::UNDEFINED 178687405728                       # Cumulative time (in ticks) in various power states (Tick)
board.processor.cores.core.power_state.pwrStateResidencyTicks::ON 178687405728                       # Cumulative time (in ticks) in various power states (Tick)
board.processor.cores.core.rename.squashCycles      5887098                       # Number of cycles rename is squashing (Cycle)
board.processor.cores.core.rename.idleCycles     33222259                       # Number of cycles rename is idle (Cycle)
board.processor.cores.core.rename.blockCycles    199672915                       # Number of cycles rename is blocking (Cycle)
board.processor.cores.core.rename.serializeStallCycles    130636594                       # count of cycles rename stalled for serializing inst (Cycle)
board.processor.cores.core.rename.runCycles     98334182                       # Number of cycles rename is running (Cycle)
board.processor.cores.core.rename.unblockCycles     68742873                       # Number of cycles rename is unblocking (Cycle)
board.processor.cores.core.rename.renamedInsts    804548140                       # Number of instructions processed by rename (Count)
board.processor.cores.core.rename.ROBFullEvents         3730                       # Number of times rename has blocked due to ROB full (Count)
board.processor.cores.core.rename.IQFullEvents     57228486                       # Number of times rename has blocked due to IQ full (Count)
board.processor.cores.core.rename.LQFullEvents         1054                       # Number of times rename has blocked due to LQ full (Count)
board.processor.cores.core.rename.SQFullEvents        93478                       # Number of times rename has blocked due to SQ full (Count)
board.processor.cores.core.rename.renamedOperands   1374637870                       # Number of destination operands rename has renamed (Count)
board.processor.cores.core.rename.lookups   2631442804                       # Number of register rename lookups that rename has made (Count)
board.processor.cores.core.rename.intLookups    896616086                       # Number of integer rename lookups (Count)
board.processor.cores.core.rename.fpLookups        45047                       # Number of floating rename lookups (Count)
board.processor.cores.core.rename.committedMaps    457942064                       # Number of HB maps that are committed (Count)
board.processor.cores.core.rename.undoneMaps    916695797                       # Number of HB maps that are undone due to squashing (Count)
board.processor.cores.core.rename.serializing      1667135                       # count of serializing insts renamed (Count)
board.processor.cores.core.rename.tempSerializing           41                       # count of temporary serializing insts renamed (Count)
board.processor.cores.core.rename.skidInsts    181662419                       # count of insts added to the skid buffer (Count)
board.processor.cores.core.rob.reads       1231532485                       # The number of ROB reads (Count)
board.processor.cores.core.rob.writes      1582773057                       # The number of ROB writes (Count)
board.processor.cores.core.thread_0.numInsts    162262094                       # Number of Instructions committed (Count)
board.processor.cores.core.thread_0.numOps    264092747                       # Number of Ops committed (Count)
board.processor.cores.core.thread_0.numMemRefs            0                       # Number of Memory References (Count)
board.processor.cores.core.workload.numSyscalls           74                       # Number of system calls (Count)
board.workload.inst.arm                             0                       # number of arm instructions executed (Count)
board.workload.inst.quiesce                         0                       # number of quiesce instructions executed (Count)

---------- End Simulation Statistics   ----------
